data_asd\(2)
_audit_creation_date              2019-09-09
_audit_creation_method            'Materials Studio'
_symmetry_space_group_name_H-M    'P1'
_symmetry_Int_Tables_number       1
_symmetry_cell_setting            triclinic
loop_
_symmetry_equiv_pos_as_xyz
  x,y,z
_cell_length_a                    25.8240
_cell_length_b                    25.8240
_cell_length_c                    17.2640
_cell_angle_alpha                 90.0000
_cell_angle_beta                  90.0000
_cell_angle_gamma                 90.0000
loop_
_atom_site_label
_atom_site_type_symbol
_atom_site_fract_x
_atom_site_fract_y
_atom_site_fract_z
_atom_site_U_iso_or_equiv
_atom_site_adp_type
_atom_site_occupancy
V1     V     0.00000   0.50000   0.00000   0.00000  Uiso   1.00
V2     V     0.50000   0.00000   0.00000   0.00000  Uiso   1.00
Er3    V     0.13800   0.13800   0.00000   0.00000  Uiso   1.00
Er4    Er    0.86200   0.86200   0.00000   0.00000  Uiso   1.00
Er5    Er    0.86200   0.13800   0.00000   0.00000  Uiso   1.00
Er6    Er    0.13800   0.86200   0.00000   0.00000  Uiso   1.00
Ti7    Ti    0.00000   0.00000   0.50000   0.00000  Uiso   1.00
loop_
_geom_bond_atom_site_label_1
_geom_bond_atom_site_label_2
_geom_bond_distance
_geom_bond_site_symmetry_2
_ccdc_geom_bond_type
V1     Er3    10.005   .     S
V1     Er6    10.005   .     S
V1     Er4    10.005   1_455 S
V1     Er5    10.005   1_455 S
V2     Er5    10.005   .     S
V2     Er3    10.005   .     S
V2     Er6    10.005   1_545 S
V2     Er4    10.005   1_545 S
Er3    Ti7     9.996   1_554 S
Er4    V1     10.005   1_655 S
Er4    V2     10.005   1_565 S
Er4    Ti7     9.996   1_664 S
Er4    Ti7     9.996   1_665 S
Er5    V1     10.005   1_655 S
Er5    Ti7     9.996   1_654 S
Er5    Ti7     9.996   1_655 S
Er6    V2     10.005   1_565 S
Er6    Ti7     9.996   1_564 S
Er6    Ti7     9.996   1_565 S
Ti7    Er3     9.996   1_556 S
Ti7    Er4     9.996   1_446 S
Ti7    Er4     9.996   1_445 S
Ti7    Er5     9.996   1_456 S
Ti7    Er5     9.996   1_455 S
Ti7    Er6     9.996   1_546 S
Ti7    Er6     9.996   1_545 S
Er3    Ti7     10.00   .     S
