data_ast
_audit_creation_date              2019-08-20
_audit_creation_method            'Materials Studio'
_symmetry_space_group_name_H-M    'P1'
_symmetry_Int_Tables_number       1
_symmetry_cell_setting            triclinic
loop_
_symmetry_equiv_pos_as_xyz
  x,y,z
_cell_length_a                    43.0960
_cell_length_b                    43.0960
_cell_length_c                    43.0960
_cell_angle_alpha                 90.0000
_cell_angle_beta                  90.0000
_cell_angle_gamma                 90.0000
loop_
_atom_site_label
_atom_site_type_symbol
_atom_site_fract_x
_atom_site_fract_y
_atom_site_fract_z
_atom_site_U_iso_or_equiv
_atom_site_adp_type
_atom_site_occupancy
V1     V     0.11600   0.11600   0.11600   0.00000  Uiso   1.00
V2     V     0.11600   0.61600   0.61600   0.00000  Uiso   1.00
V3     V     0.61600   0.11600   0.61600   0.00000  Uiso   1.00
V4     V     0.61600   0.61600   0.11600   0.00000  Uiso   1.00
V5     V     0.88400   0.88400   0.11600   0.00000  Uiso   1.00
V6     V     0.88400   0.38400   0.61600   0.00000  Uiso   1.00
V7     V     0.38400   0.88400   0.61600   0.00000  Uiso   1.00
V8     V     0.38400   0.38400   0.11600   0.00000  Uiso   1.00
V9     V     0.88400   0.11600   0.88400   0.00000  Uiso   1.00
V10    V     0.88400   0.61600   0.38400   0.00000  Uiso   1.00
V11    V     0.38400   0.11600   0.38400   0.00000  Uiso   1.00
V12    V     0.38400   0.61600   0.88400   0.00000  Uiso   1.00
V13    V     0.11600   0.88400   0.88400   0.00000  Uiso   1.00
V14    V     0.11600   0.38400   0.38400   0.00000  Uiso   1.00
V15    V     0.61600   0.88400   0.38400   0.00000  Uiso   1.00
V16    V     0.61600   0.38400   0.88400   0.00000  Uiso   1.00
V17    V     0.11600   0.11600   0.88400   0.00000  Uiso   1.00
V18    V     0.11600   0.61600   0.38400   0.00000  Uiso   1.00
V19    V     0.61600   0.11600   0.38400   0.00000  Uiso   1.00
V20    V     0.61600   0.61600   0.88400   0.00000  Uiso   1.00
V21    V     0.88400   0.88400   0.88400   0.00000  Uiso   1.00
V22    V     0.88400   0.38400   0.38400   0.00000  Uiso   1.00
V23    V     0.38400   0.88400   0.38400   0.00000  Uiso   1.00
V24    V     0.38400   0.38400   0.88400   0.00000  Uiso   1.00
V25    V     0.11600   0.88400   0.11600   0.00000  Uiso   1.00
V26    V     0.11600   0.38400   0.61600   0.00000  Uiso   1.00
V27    V     0.61600   0.88400   0.61600   0.00000  Uiso   1.00
V28    V     0.61600   0.38400   0.11600   0.00000  Uiso   1.00
V29    V     0.88400   0.11600   0.11600   0.00000  Uiso   1.00
V30    V     0.88400   0.61600   0.61600   0.00000  Uiso   1.00
V31    V     0.38400   0.11600   0.61600   0.00000  Uiso   1.00
V32    V     0.38400   0.61600   0.11600   0.00000  Uiso   1.00
Er33   Er    0.25000   0.25000   0.25000   0.00000  Uiso   1.00
Er34   Er    0.75000   0.75000   0.25000   0.00000  Uiso   1.00
Er35   Er    0.75000   0.25000   0.75000   0.00000  Uiso   1.00
Er36   Er    0.25000   0.75000   0.75000   0.00000  Uiso   1.00
Er37   Er    0.25000   0.25000   0.75000   0.00000  Uiso   1.00
Er38   Er    0.75000   0.75000   0.75000   0.00000  Uiso   1.00
Er39   Er    0.75000   0.25000   0.25000   0.00000  Uiso   1.00
Er40   Er    0.25000   0.75000   0.25000   0.00000  Uiso   1.00
loop_
_geom_bond_atom_site_label_1
_geom_bond_atom_site_label_2
_geom_bond_distance
_geom_bond_site_symmetry_2
_ccdc_geom_bond_type
V1     Er33   10.002   .     S
V1     V17     9.998   1_554 S
V1     V29     9.998   1_455 S
V1     V25     9.998   1_545 S
V2     Er36   10.002   .     S
V2     V18     9.998   .     S
V2     V30     9.998   1_455 S
V2     V26     9.998   .     S
V3     Er35   10.002   .     S
V3     V19     9.998   .     S
V3     V31     9.998   .     S
V3     V27     9.998   1_545 S
V4     Er34   10.002   .     S
V4     V20     9.998   1_554 S
V4     V32     9.998   .     S
V4     V28     9.998   .     S
V5     Er34   10.002   .     S
V5     V21     9.998   1_554 S
V5     V25     9.998   1_655 S
V5     V29     9.998   1_565 S
V6     Er35   10.002   .     S
V6     V22     9.998   .     S
V6     V26     9.998   1_655 S
V6     V30     9.998   .     S
V7     Er36   10.002   .     S
V7     V23     9.998   .     S
V7     V27     9.998   .     S
V7     V31     9.998   1_565 S
V8     Er33   10.002   .     S
V8     V24     9.998   1_554 S
V8     V28     9.998   .     S
V8     V32     9.998   .     S
V9     Er35   10.002   .     S
V9     V29     9.998   1_556 S
V9     V17     9.998   1_655 S
V9     V21     9.998   1_545 S
V10    Er34   10.002   .     S
V10    V30     9.998   .     S
V10    V18     9.998   1_655 S
V10    V22     9.998   .     S
V11    Er33   10.002   .     S
V11    V31     9.998   .     S
V11    V19     9.998   .     S
V11    V23     9.998   1_545 S
V12    Er36   10.002   .     S
V12    V32     9.998   1_556 S
V12    V20     9.998   .     S
V12    V24     9.998   .     S
V13    Er36   10.002   .     S
V13    V25     9.998   1_556 S
V13    V21     9.998   1_455 S
V13    V17     9.998   1_565 S
V14    Er33   10.002   .     S
V14    V26     9.998   .     S
V14    V22     9.998   1_455 S
V14    V18     9.998   .     S
V15    Er34   10.002   .     S
V15    V27     9.998   .     S
V15    V23     9.998   .     S
V15    V19     9.998   1_565 S
V16    Er35   10.002   .     S
V16    V28     9.998   1_556 S
V16    V24     9.998   .     S
V16    V20     9.998   .     S
V17    Er37   10.002   .     S
V17    V1      9.998   1_556 S
V17    V13     9.998   1_545 S
V17    V9      9.998   1_455 S
V18    Er40   10.002   .     S
V18    V10     9.998   1_455 S
V19    Er39   10.002   .     S
V19    V15     9.998   1_545 S
V20    Er38   10.002   .     S
V20    V4      9.998   1_556 S
V21    Er38   10.002   .     S
V21    V5      9.998   1_556 S
V21    V9      9.998   1_565 S
V21    V13     9.998   1_655 S
V22    Er39   10.002   .     S
V22    V14     9.998   1_655 S
V23    Er40   10.002   .     S
V23    V11     9.998   1_565 S
V24    Er37   10.002   .     S
V24    V8      9.998   1_556 S
V25    Er40   10.002   .     S
V25    V13     9.998   1_554 S
V25    V1      9.998   1_565 S
V25    V5      9.998   1_455 S
V26    Er37   10.002   .     S
V26    V6      9.998   1_455 S
V27    Er38   10.002   .     S
V27    V3      9.998   1_565 S
V28    Er39   10.002   .     S
V28    V16     9.998   1_554 S
V29    Er39   10.002   .     S
V29    V9      9.998   1_554 S
V29    V5      9.998   1_545 S
V29    V1      9.998   1_655 S
V30    Er38   10.002   .     S
V30    V2      9.998   1_655 S
V31    Er37   10.002   .     S
V31    V7      9.998   1_545 S
V32    Er40   10.002   .     S
V32    V12     9.998   1_554 S
