data_bbf
_audit_creation_date              2019-12-11
_audit_creation_method            'Materials Studio'
_symmetry_space_group_name_H-M    'P1'
_symmetry_Int_Tables_number       1
_symmetry_cell_setting            triclinic
loop_
_symmetry_equiv_pos_as_xyz
  x,y,z
_cell_length_a                    28.2850
_cell_length_b                    17.3200
_cell_length_c                    16.3330
_cell_angle_alpha                 90.0000
_cell_angle_beta                  90.0000
_cell_angle_gamma                 90.0000
loop_
_atom_site_label
_atom_site_type_symbol
_atom_site_fract_x
_atom_site_fract_y
_atom_site_fract_z
_atom_site_U_iso_or_equiv
_atom_site_adp_type
_atom_site_occupancy
V1     V     0.00000   0.00000   0.00000   0.00000  Uiso   1.00
V2     V     0.50000   0.00000   0.50000   0.00000  Uiso   1.00
Er3    Er    0.25000   0.33333   0.25000   0.00000  Uiso   1.00
Er4    Er    0.25000   0.66667   0.75000   0.00000  Uiso   1.00
Er5    Er    0.75000   0.66667   0.75000   0.00000  Uiso   1.00
Er6    Er    0.75000   0.33333   0.25000   0.00000  Uiso   1.00
loop_
_geom_bond_atom_site_label_1
_geom_bond_atom_site_label_2
_geom_bond_distance
_geom_bond_site_symmetry_2
_ccdc_geom_bond_type
V1     Er3    10.000   .     S
V1     Er4    10.000   1_544 S
V1     Er5    10.000   1_444 S
V1     Er6    10.000   1_455 S
V2     Er4    10.000   1_545 S
V2     Er3    10.000   .     S
V2     Er6    10.000   .     S
V2     Er5    10.000   1_545 S
Er3    Er4    10.001   1_554 S
Er4    V2     10.000   1_565 S
Er4    V1     10.000   1_566 S
Er4    Er3    10.001   1_556 S
Er5    V1     10.000   1_666 S
Er5    V2     10.000   1_565 S
Er5    Er6    10.001   1_556 S
Er6    V1     10.000   1_655 S
Er6    Er5    10.001   1_554 S
Er3    Er4    10.001   .     S
Er5    Er6    10.001   .     S
