data_ben
_audit_creation_date              2019-09-09
_audit_creation_method            'Materials Studio'
_symmetry_space_group_name_H-M    'P1'
_symmetry_Int_Tables_number       1
_symmetry_cell_setting            triclinic
loop_
_symmetry_equiv_pos_as_xyz
  x,y,z
_cell_length_a                    22.5740
_cell_length_b                    22.5740
_cell_length_c                    13.7540
_cell_angle_alpha                 90.0000
_cell_angle_beta                  90.0000
_cell_angle_gamma                 120.0000
loop_
_atom_site_label
_atom_site_type_symbol
_atom_site_fract_x
_atom_site_fract_y
_atom_site_fract_z
_atom_site_U_iso_or_equiv
_atom_site_adp_type
_atom_site_occupancy
V1     V     0.18570   0.37140   0.00000   0.00000  Uiso   1.00
V2     V     0.62860   0.81430   0.00000   0.00000  Uiso   1.00
V3     V     0.18570   0.81430   0.00000   0.00000  Uiso   1.00
Er4    Er    0.00000   0.00000   0.50000   0.00000  Uiso   1.00
loop_
_geom_bond_atom_site_label_1
_geom_bond_atom_site_label_2
_geom_bond_distance
_geom_bond_site_symmetry_2
_ccdc_geom_bond_type
V1     V3      9.998   .     S
V1     V2      9.998   .     S
V1     Er4    10.001   .     S
V1     Er4    10.001   1_554 S
V2     V3      9.998   .     S
V2     Er4    10.001   1_664 S
V2     Er4    10.001   1_665 S
V3     Er4    10.001   1_564 S
V3     Er4    10.001   1_565 S
Er4    V1     10.001   1_556 S
Er4    V2     10.001   1_446 S
Er4    V2     10.001   1_445 S
Er4    V3     10.001   1_546 S
Er4    V3     10.001   1_545 S
