data_bon
_audit_creation_date              2019-05-28
_audit_creation_method            'Materials Studio'
_symmetry_space_group_name_H-M    'P1'
_symmetry_Int_Tables_number       1
_symmetry_cell_setting            triclinic
loop_
_symmetry_equiv_pos_as_xyz
  x,y,z
_cell_length_a                    38.7390
_cell_length_b                    38.7390
_cell_length_c                    38.7390
_cell_angle_alpha                 90.0000
_cell_angle_beta                  90.0000
_cell_angle_gamma                 90.0000
loop_
_atom_site_label
_atom_site_type_symbol
_atom_site_fract_x
_atom_site_fract_y
_atom_site_fract_z
_atom_site_U_iso_or_equiv
_atom_site_adp_type
_atom_site_occupancy
V1     V     0.00000   0.25000   0.50000   0.00000  Uiso   1.00
V2     V     0.00000   0.75000   0.50000   0.00000  Uiso   1.00
V3     V     0.50000   0.25000   0.00000   0.00000  Uiso   1.00
V4     V     0.50000   0.00000   0.25000   0.00000  Uiso   1.00
V5     V     0.50000   0.00000   0.75000   0.00000  Uiso   1.00
V6     V     0.00000   0.50000   0.25000   0.00000  Uiso   1.00
V7     V     0.25000   0.50000   0.00000   0.00000  Uiso   1.00
V8     V     0.75000   0.50000   0.00000   0.00000  Uiso   1.00
V9     V     0.25000   0.00000   0.50000   0.00000  Uiso   1.00
V10    V     0.75000   0.00000   0.50000   0.00000  Uiso   1.00
V11    V     0.00000   0.50000   0.75000   0.00000  Uiso   1.00
V12    V     0.50000   0.75000   0.00000   0.00000  Uiso   1.00
Er13   Er    0.13369   0.13369   0.32506   0.00000  Uiso   1.00
Er14   Er    0.63369   0.63369   0.82506   0.00000  Uiso   1.00
Er15   Er    0.86631   0.86631   0.32506   0.00000  Uiso   1.00
Er16   Er    0.36631   0.36631   0.82506   0.00000  Uiso   1.00
Er17   Er    0.86631   0.13369   0.67494   0.00000  Uiso   1.00
Er18   Er    0.36631   0.63369   0.17494   0.00000  Uiso   1.00
Er19   Er    0.13369   0.86631   0.67494   0.00000  Uiso   1.00
Er20   Er    0.63369   0.36631   0.17494   0.00000  Uiso   1.00
Er21   Er    0.32506   0.13369   0.13369   0.00000  Uiso   1.00
Er22   Er    0.82506   0.63369   0.63369   0.00000  Uiso   1.00
Er23   Er    0.32506   0.86631   0.86631   0.00000  Uiso   1.00
Er24   Er    0.82506   0.36631   0.36631   0.00000  Uiso   1.00
Er25   Er    0.67494   0.86631   0.13369   0.00000  Uiso   1.00
Er26   Er    0.17494   0.36631   0.63369   0.00000  Uiso   1.00
Er27   Er    0.67494   0.13369   0.86631   0.00000  Uiso   1.00
Er28   Er    0.17494   0.63369   0.36631   0.00000  Uiso   1.00
Er29   Er    0.13369   0.32506   0.13369   0.00000  Uiso   1.00
Er30   Er    0.63369   0.82506   0.63369   0.00000  Uiso   1.00
Er31   Er    0.86631   0.32506   0.86631   0.00000  Uiso   1.00
Er32   Er    0.36631   0.82506   0.36631   0.00000  Uiso   1.00
Er33   Er    0.13369   0.67494   0.86631   0.00000  Uiso   1.00
Er34   Er    0.63369   0.17494   0.36631   0.00000  Uiso   1.00
Er35   Er    0.86631   0.67494   0.13369   0.00000  Uiso   1.00
Er36   Er    0.36631   0.17494   0.63369   0.00000  Uiso   1.00
Er37   Er    0.13369   0.13369   0.67494   0.00000  Uiso   1.00
Er38   Er    0.63369   0.63369   0.17494   0.00000  Uiso   1.00
Er39   Er    0.86631   0.86631   0.67494   0.00000  Uiso   1.00
Er40   Er    0.36631   0.36631   0.17494   0.00000  Uiso   1.00
Er41   Er    0.13369   0.86631   0.32506   0.00000  Uiso   1.00
Er42   Er    0.63369   0.36631   0.82506   0.00000  Uiso   1.00
Er43   Er    0.86631   0.13369   0.32506   0.00000  Uiso   1.00
Er44   Er    0.36631   0.63369   0.82506   0.00000  Uiso   1.00
Er45   Er    0.13369   0.32506   0.86631   0.00000  Uiso   1.00
Er46   Er    0.63369   0.82506   0.36631   0.00000  Uiso   1.00
Er47   Er    0.86631   0.32506   0.13369   0.00000  Uiso   1.00
Er48   Er    0.36631   0.82506   0.63369   0.00000  Uiso   1.00
Er49   Er    0.86631   0.67494   0.86631   0.00000  Uiso   1.00
Er50   Er    0.36631   0.17494   0.36631   0.00000  Uiso   1.00
Er51   Er    0.13369   0.67494   0.13369   0.00000  Uiso   1.00
Er52   Er    0.63369   0.17494   0.63369   0.00000  Uiso   1.00
Er53   Er    0.32506   0.13369   0.86631   0.00000  Uiso   1.00
Er54   Er    0.82506   0.63369   0.36631   0.00000  Uiso   1.00
Er55   Er    0.32506   0.86631   0.13369   0.00000  Uiso   1.00
Er56   Er    0.82506   0.36631   0.63369   0.00000  Uiso   1.00
Er57   Er    0.67494   0.13369   0.13369   0.00000  Uiso   1.00
Er58   Er    0.17494   0.63369   0.63369   0.00000  Uiso   1.00
Er59   Er    0.67494   0.86631   0.86631   0.00000  Uiso   1.00
Er60   Er    0.17494   0.36631   0.36631   0.00000  Uiso   1.00
loop_
_geom_bond_atom_site_label_1
_geom_bond_atom_site_label_2
_geom_bond_distance
_geom_bond_site_symmetry_2
_ccdc_geom_bond_type
V1     Er24    9.646   1_455 S
V1     Er26    9.646   .     S
V1     Er56    9.646   1_455 S
V1     Er60    9.646   .     S
V1     Er43    9.646   1_455 S
V1     Er37    9.646   .     S
V1     Er13    9.646   .     S
V1     Er17    9.646   1_455 S
V2     Er28    9.646   .     S
V2     Er22    9.646   1_455 S
V2     Er58    9.646   .     S
V2     Er54    9.646   1_455 S
V2     Er41    9.646   .     S
V2     Er39    9.646   1_455 S
V2     Er15    9.646   1_455 S
V2     Er19    9.646   .     S
V3     Er40    9.646   .     S
V3     Er42    9.646   1_554 S
V3     Er20    9.646   .     S
V3     Er16    9.646   1_554 S
V3     Er21    9.646   .     S
V3     Er27    9.646   1_554 S
V3     Er53    9.646   1_554 S
V3     Er57    9.646   .     S
V4     Er32    9.646   1_545 S
V4     Er34    9.646   .     S
V4     Er46    9.646   1_545 S
V4     Er50    9.646   .     S
V4     Er55    9.646   1_545 S
V4     Er57    9.646   .     S
V4     Er21    9.646   .     S
V4     Er25    9.646   1_545 S
V5     Er36    9.646   .     S
V5     Er30    9.646   1_545 S
V5     Er52    9.646   .     S
V5     Er48    9.646   1_545 S
V5     Er53    9.646   .     S
V5     Er59    9.646   1_545 S
V5     Er23    9.646   1_545 S
V5     Er27    9.646   .     S
V6     Er60    9.646   .     S
V6     Er54    9.646   1_455 S
V6     Er28    9.646   .     S
V6     Er24    9.646   1_455 S
V6     Er29    9.646   .     S
V6     Er35    9.646   1_455 S
V6     Er47    9.646   1_455 S
V6     Er51    9.646   .     S
V7     Er16    9.646   1_554 S
V7     Er18    9.646   .     S
V7     Er44    9.646   1_554 S
V7     Er40    9.646   .     S
V7     Er45    9.646   1_554 S
V7     Er51    9.646   .     S
V7     Er29    9.646   .     S
V7     Er33    9.646   1_554 S
V8     Er20    9.646   .     S
V8     Er14    9.646   1_554 S
V8     Er38    9.646   .     S
V8     Er42    9.646   1_554 S
V8     Er47    9.646   .     S
V8     Er49    9.646   1_554 S
V8     Er31    9.646   1_554 S
V8     Er35    9.646   .     S
V9     Er48    9.646   1_545 S
V9     Er50    9.646   .     S
V9     Er32    9.646   1_545 S
V9     Er36    9.646   .     S
V9     Er19    9.646   1_545 S
V9     Er13    9.646   .     S
V9     Er37    9.646   .     S
V9     Er41    9.646   1_545 S
V10    Er52    9.646   .     S
V10    Er46    9.646   1_545 S
V10    Er34    9.646   .     S
V10    Er30    9.646   1_545 S
V10    Er17    9.646   .     S
V10    Er15    9.646   1_545 S
V10    Er39    9.646   1_545 S
V10    Er43    9.646   .     S
V11    Er56    9.646   1_455 S
V11    Er58    9.646   .     S
V11    Er22    9.646   1_455 S
V11    Er26    9.646   .     S
V11    Er31    9.646   1_455 S
V11    Er33    9.646   .     S
V11    Er45    9.646   .     S
V11    Er49    9.646   1_455 S
V12    Er44    9.646   1_554 S
V12    Er38    9.646   .     S
V12    Er14    9.646   1_554 S
V12    Er18    9.646   .     S
V12    Er23    9.646   1_554 S
V12    Er25    9.646   .     S
V12    Er55    9.646   .     S
V12    Er59    9.646   1_554 S
Er13   Er29   10.484   .     S
Er13   Er21   10.484   .     S
Er13   Er50    9.291   .     S
Er13   Er60    9.291   .     S
Er13   Er41   10.358   1_545 S
Er13   Er43   10.358   1_455 S
Er14   Er30   10.484   .     S
Er14   Er22   10.484   .     S
Er14   V8      9.646   1_556 S
Er14   V12     9.646   1_556 S
Er14   Er49    9.291   .     S
Er14   Er59    9.291   .     S
Er14   Er42   10.358   .     S
Er14   Er44   10.358   .     S
Er15   Er35   10.484   .     S
Er15   Er25   10.484   .     S
Er15   V10     9.646   1_565 S
Er15   V2      9.646   1_655 S
Er15   Er46    9.291   .     S
Er15   Er54    9.291   .     S
Er15   Er43   10.358   1_565 S
Er15   Er41   10.358   1_655 S
Er16   Er36   10.484   .     S
Er16   Er26   10.484   .     S
Er16   V7      9.646   1_556 S
Er16   V3      9.646   1_556 S
Er16   Er45    9.291   .     S
Er16   Er53    9.291   .     S
Er16   Er44   10.358   .     S
Er16   Er42   10.358   .     S
Er17   Er31   10.484   .     S
Er17   Er27   10.484   .     S
Er17   V1      9.646   1_655 S
Er17   Er52    9.291   .     S
Er17   Er56    9.291   .     S
Er17   Er39   10.358   1_545 S
Er17   Er37   10.358   1_655 S
Er18   Er32   10.484   .     S
Er18   Er28   10.484   .     S
Er18   Er51    9.291   .     S
Er18   Er55    9.291   .     S
Er18   Er40   10.358   .     S
Er18   Er38   10.358   .     S
Er19   Er33   10.484   .     S
Er19   Er23   10.484   .     S
Er19   V9      9.646   1_565 S
Er19   Er48    9.291   .     S
Er19   Er58    9.291   .     S
Er19   Er37   10.358   1_565 S
Er19   Er39   10.358   1_455 S
Er20   Er34   10.484   .     S
Er20   Er24   10.484   .     S
Er20   Er47    9.291   .     S
Er20   Er57    9.291   .     S
Er20   Er38   10.358   .     S
Er20   Er40   10.358   .     S
Er21   Er29   10.484   .     S
Er21   Er40    9.291   .     S
Er21   Er50    9.291   .     S
Er21   Er53   10.358   1_554 S
Er21   Er55   10.358   1_545 S
Er22   Er30   10.484   .     S
Er22   V2      9.646   1_655 S
Er22   V11     9.646   1_655 S
Er22   Er39    9.291   .     S
Er22   Er49    9.291   .     S
Er22   Er54   10.358   .     S
Er22   Er56   10.358   .     S
Er23   Er33   10.484   .     S
Er23   V12     9.646   1_556 S
Er23   V5      9.646   1_565 S
Er23   Er44    9.291   .     S
Er23   Er48    9.291   .     S
Er23   Er55   10.358   1_556 S
Er23   Er53   10.358   1_565 S
Er24   Er34   10.484   .     S
Er24   V1      9.646   1_655 S
Er24   V6      9.646   1_655 S
Er24   Er43    9.291   .     S
Er24   Er47    9.291   .     S
Er24   Er56   10.358   .     S
Er24   Er54   10.358   .     S
Er25   Er35   10.484   .     S
Er25   V4      9.646   1_565 S
Er25   Er38    9.291   .     S
Er25   Er46    9.291   .     S
Er25   Er59   10.358   1_554 S
Er25   Er57   10.358   1_565 S
Er26   Er36   10.484   .     S
Er26   Er37    9.291   .     S
Er26   Er45    9.291   .     S
Er26   Er60   10.358   .     S
Er26   Er58   10.358   .     S
Er27   Er31   10.484   .     S
Er27   V3      9.646   1_556 S
Er27   Er42    9.291   .     S
Er27   Er52    9.291   .     S
Er27   Er57   10.358   1_556 S
Er27   Er59   10.358   1_545 S
Er28   Er32   10.484   .     S
Er28   Er41    9.291   .     S
Er28   Er51    9.291   .     S
Er28   Er58   10.358   .     S
Er28   Er60   10.358   .     S
Er29   Er60    9.291   .     S
Er29   Er40    9.291   .     S
Er29   Er47   10.358   1_455 S
Er29   Er45   10.358   1_554 S
Er30   V5      9.646   1_565 S
Er30   V10     9.646   1_565 S
Er30   Er59    9.291   .     S
Er30   Er39    9.291   .     S
Er30   Er48   10.358   .     S
Er30   Er46   10.358   .     S
Er31   V11     9.646   1_655 S
Er31   V8      9.646   1_556 S
Er31   Er56    9.291   .     S
Er31   Er42    9.291   .     S
Er31   Er45   10.358   1_655 S
Er31   Er47   10.358   1_556 S
Er32   V4      9.646   1_565 S
Er32   V9      9.646   1_565 S
Er32   Er55    9.291   .     S
Er32   Er41    9.291   .     S
Er32   Er46   10.358   .     S
Er32   Er48   10.358   .     S
Er33   V7      9.646   1_556 S
Er33   Er58    9.291   .     S
Er33   Er44    9.291   .     S
Er33   Er49   10.358   1_455 S
Er33   Er51   10.358   1_556 S
Er34   Er57    9.291   .     S
Er34   Er43    9.291   .     S
Er34   Er50   10.358   .     S
Er34   Er52   10.358   .     S
Er35   V6      9.646   1_655 S
Er35   Er54    9.291   .     S
Er35   Er38    9.291   .     S
Er35   Er51   10.358   1_655 S
Er35   Er49   10.358   1_554 S
Er36   Er53    9.291   .     S
Er36   Er37    9.291   .     S
Er36   Er52   10.358   .     S
Er36   Er50   10.358   .     S
Er37   Er53   10.484   .     S
Er37   Er45   10.484   .     S
Er37   Er17   10.358   1_455 S
Er37   Er19   10.358   1_545 S
Er38   Er54   10.484   .     S
Er38   Er46   10.484   .     S
Er39   Er59   10.484   .     S
Er39   Er49   10.484   .     S
Er39   V2      9.646   1_655 S
Er39   V10     9.646   1_565 S
Er39   Er19   10.358   1_655 S
Er39   Er17   10.358   1_565 S
Er40   Er60   10.484   .     S
Er40   Er50   10.484   .     S
Er41   Er55   10.484   .     S
Er41   Er51   10.484   .     S
Er41   V9      9.646   1_565 S
Er41   Er15   10.358   1_455 S
Er41   Er13   10.358   1_565 S
Er42   Er56   10.484   .     S
Er42   Er52   10.484   .     S
Er42   V3      9.646   1_556 S
Er42   V8      9.646   1_556 S
Er43   Er57   10.484   .     S
Er43   Er47   10.484   .     S
Er43   V1      9.646   1_655 S
Er43   Er13   10.358   1_655 S
Er43   Er15   10.358   1_545 S
Er44   Er58   10.484   .     S
Er44   Er48   10.484   .     S
Er44   V12     9.646   1_556 S
Er44   V7      9.646   1_556 S
Er45   Er53   10.484   .     S
Er45   V7      9.646   1_556 S
Er45   Er29   10.358   1_556 S
Er45   Er31   10.358   1_455 S
Er46   Er54   10.484   .     S
Er46   V10     9.646   1_565 S
Er46   V4      9.646   1_565 S
Er47   Er57   10.484   .     S
Er47   V6      9.646   1_655 S
Er47   Er31   10.358   1_554 S
Er47   Er29   10.358   1_655 S
Er48   Er58   10.484   .     S
Er48   V9      9.646   1_565 S
Er48   V5      9.646   1_565 S
Er49   Er59   10.484   .     S
Er49   V8      9.646   1_556 S
Er49   V11     9.646   1_655 S
Er49   Er35   10.358   1_556 S
Er49   Er33   10.358   1_655 S
Er50   Er60   10.484   .     S
Er51   Er55   10.484   .     S
Er51   Er33   10.358   1_554 S
Er51   Er35   10.358   1_455 S
Er52   Er56   10.484   .     S
Er53   V3      9.646   1_556 S
Er53   Er23   10.358   1_545 S
Er53   Er21   10.358   1_556 S
Er54   V6      9.646   1_655 S
Er54   V2      9.646   1_655 S
Er55   V4      9.646   1_565 S
Er55   Er21   10.358   1_565 S
Er55   Er23   10.358   1_554 S
Er56   V11     9.646   1_655 S
Er56   V1      9.646   1_655 S
Er57   Er25   10.358   1_545 S
Er57   Er27   10.358   1_554 S
Er59   V5      9.646   1_565 S
Er59   V12     9.646   1_556 S
Er59   Er27   10.358   1_565 S
Er59   Er25   10.358   1_556 S
