data_cat
_audit_creation_date              2018-01-16
_audit_creation_method            'Materials Studio'
_symmetry_space_group_name_H-M    'P1'
_symmetry_Int_Tables_number       1
_symmetry_cell_setting            triclinic
loop_
_symmetry_equiv_pos_as_xyz
  x,y,z
_cell_length_a                    10.0000
_cell_length_b                    10.0000
_cell_length_c                    10.0000
_cell_angle_alpha                 90.0000
_cell_angle_beta                  90.0000
_cell_angle_gamma                 120.0000
loop_
_atom_site_label
_atom_site_type_symbol
_atom_site_fract_x
_atom_site_fract_y
_atom_site_fract_z
_atom_site_U_iso_or_equiv
_atom_site_adp_type
_atom_site_occupancy
V1     V     0.18570   0.37140   0.25000   0.00000  Uiso   1.00
V2     V     0.62860   0.81430   0.25000   0.00000  Uiso   1.00
V3     V     0.18570   0.81430   0.25000   0.00000  Uiso   1.00
V4     V     0.81430   0.62860   0.75000   0.00000  Uiso   1.00
V5     V     0.37140   0.18570   0.75000   0.00000  Uiso   1.00
V6     V     0.81430   0.18570   0.75000   0.00000  Uiso   1.00
Er7    Er    0.00000   0.00000   0.00000   0.00000  Uiso   1.00
Er8    Er    0.00000   0.00000   0.50000   0.00000  Uiso   1.00
loop_
_geom_bond_atom_site_label_1
_geom_bond_atom_site_label_2
_geom_bond_distance
_geom_bond_site_symmetry_2
_ccdc_geom_bond_type
V1     V2      4.429   .     S
V1     V3      4.429   .     S
V1     Er8     4.074   .     S
V1     Er7     4.074   .     S
V2     V3      4.429   .     S
V2     Er8     4.074   1_665 S
V2     Er7     4.074   1_665 S
V3     Er8     4.074   1_565 S
V3     Er7     4.074   1_565 S
V4     V5      4.429   .     S
V4     V6      4.429   .     S
V4     Er7     4.074   1_666 S
V4     Er8     4.074   1_665 S
V5     V6      4.429   .     S
V5     Er7     4.074   1_556 S
V5     Er8     4.074   .     S
V6     Er7     4.074   1_656 S
V6     Er8     4.074   1_655 S
Er7    V5      4.074   1_554 S
Er7    V6      4.074   1_454 S
Er7    V4      4.074   1_444 S
Er7    V3      4.074   1_545 S
Er7    V2      4.074   1_445 S
Er8    V2      4.074   1_445 S
Er8    V3      4.074   1_545 S
Er8    V4      4.074   1_445 S
Er8    V6      4.074   1_455 S
