data_cdk
_audit_creation_date              2017-12-18
_audit_creation_method            'Materials Studio'
_symmetry_space_group_name_H-M    'P1'
_symmetry_Int_Tables_number       1
_symmetry_cell_setting            triclinic
loop_
_symmetry_equiv_pos_as_xyz
  x,y,z
_cell_length_a                    50.0000
_cell_length_b                    50.0000
_cell_length_c                    50.0000
_cell_angle_alpha                 90.0000
_cell_angle_beta                  90.0000
_cell_angle_gamma                 90.0000
loop_
_atom_site_label
_atom_site_type_symbol
_atom_site_fract_x
_atom_site_fract_y
_atom_site_fract_z
_atom_site_U_iso_or_equiv
_atom_site_adp_type
_atom_site_occupancy
Er1    Er    0.12510   0.18140   0.25000   0.00000  Uiso   1.00
Er2    Er    0.12510   0.68140   0.75000   0.00000  Uiso   1.00
Er3    Er    0.62510   0.18140   0.75000   0.00000  Uiso   1.00
Er4    Er    0.62510   0.68140   0.25000   0.00000  Uiso   1.00
Er5    Er    0.87490   0.81860   0.25000   0.00000  Uiso   1.00
Er6    Er    0.87490   0.31860   0.75000   0.00000  Uiso   1.00
Er7    Er    0.37490   0.81860   0.75000   0.00000  Uiso   1.00
Er8    Er    0.37490   0.31860   0.25000   0.00000  Uiso   1.00
Er9    Er    0.87490   0.18140   0.75000   0.00000  Uiso   1.00
Er10   Er    0.87490   0.68140   0.25000   0.00000  Uiso   1.00
Er11   Er    0.37490   0.18140   0.25000   0.00000  Uiso   1.00
Er12   Er    0.37490   0.68140   0.75000   0.00000  Uiso   1.00
Er13   Er    0.12510   0.81860   0.75000   0.00000  Uiso   1.00
Er14   Er    0.12510   0.31860   0.25000   0.00000  Uiso   1.00
Er15   Er    0.62510   0.81860   0.25000   0.00000  Uiso   1.00
Er16   Er    0.62510   0.31860   0.75000   0.00000  Uiso   1.00
Er17   Er    0.25000   0.12510   0.18140   0.00000  Uiso   1.00
Er18   Er    0.25000   0.62510   0.68140   0.00000  Uiso   1.00
Er19   Er    0.75000   0.12510   0.68140   0.00000  Uiso   1.00
Er20   Er    0.75000   0.62510   0.18140   0.00000  Uiso   1.00
Er21   Er    0.25000   0.87490   0.81860   0.00000  Uiso   1.00
Er22   Er    0.25000   0.37490   0.31860   0.00000  Uiso   1.00
Er23   Er    0.75000   0.87490   0.31860   0.00000  Uiso   1.00
Er24   Er    0.75000   0.37490   0.81860   0.00000  Uiso   1.00
Er25   Er    0.75000   0.87490   0.18140   0.00000  Uiso   1.00
Er26   Er    0.75000   0.37490   0.68140   0.00000  Uiso   1.00
Er27   Er    0.25000   0.87490   0.68140   0.00000  Uiso   1.00
Er28   Er    0.25000   0.37490   0.18140   0.00000  Uiso   1.00
Er29   Er    0.75000   0.12510   0.81860   0.00000  Uiso   1.00
Er30   Er    0.75000   0.62510   0.31860   0.00000  Uiso   1.00
Er31   Er    0.25000   0.12510   0.31860   0.00000  Uiso   1.00
Er32   Er    0.25000   0.62510   0.81860   0.00000  Uiso   1.00
Er33   Er    0.18140   0.25000   0.12510   0.00000  Uiso   1.00
Er34   Er    0.18140   0.75000   0.62510   0.00000  Uiso   1.00
Er35   Er    0.68140   0.25000   0.62510   0.00000  Uiso   1.00
Er36   Er    0.68140   0.75000   0.12510   0.00000  Uiso   1.00
Er37   Er    0.81860   0.25000   0.87490   0.00000  Uiso   1.00
Er38   Er    0.81860   0.75000   0.37490   0.00000  Uiso   1.00
Er39   Er    0.31860   0.25000   0.37490   0.00000  Uiso   1.00
Er40   Er    0.31860   0.75000   0.87490   0.00000  Uiso   1.00
Er41   Er    0.18140   0.75000   0.87490   0.00000  Uiso   1.00
Er42   Er    0.18140   0.25000   0.37490   0.00000  Uiso   1.00
Er43   Er    0.68140   0.75000   0.37490   0.00000  Uiso   1.00
Er44   Er    0.68140   0.25000   0.87490   0.00000  Uiso   1.00
Er45   Er    0.81860   0.75000   0.12510   0.00000  Uiso   1.00
Er46   Er    0.81860   0.25000   0.62510   0.00000  Uiso   1.00
Er47   Er    0.31860   0.75000   0.62510   0.00000  Uiso   1.00
Er48   Er    0.31860   0.25000   0.12510   0.00000  Uiso   1.00
Er49   Er    0.87490   0.81860   0.75000   0.00000  Uiso   1.00
Er50   Er    0.87490   0.31860   0.25000   0.00000  Uiso   1.00
Er51   Er    0.37490   0.81860   0.25000   0.00000  Uiso   1.00
Er52   Er    0.37490   0.31860   0.75000   0.00000  Uiso   1.00
Er53   Er    0.12510   0.18140   0.75000   0.00000  Uiso   1.00
Er54   Er    0.12510   0.68140   0.25000   0.00000  Uiso   1.00
Er55   Er    0.62510   0.18140   0.25000   0.00000  Uiso   1.00
Er56   Er    0.62510   0.68140   0.75000   0.00000  Uiso   1.00
Er57   Er    0.12510   0.81860   0.25000   0.00000  Uiso   1.00
Er58   Er    0.12510   0.31860   0.75000   0.00000  Uiso   1.00
Er59   Er    0.62510   0.81860   0.75000   0.00000  Uiso   1.00
Er60   Er    0.62510   0.31860   0.25000   0.00000  Uiso   1.00
Er61   Er    0.87490   0.18140   0.25000   0.00000  Uiso   1.00
Er62   Er    0.87490   0.68140   0.75000   0.00000  Uiso   1.00
Er63   Er    0.37490   0.18140   0.75000   0.00000  Uiso   1.00
Er64   Er    0.37490   0.68140   0.25000   0.00000  Uiso   1.00
Er65   Er    0.75000   0.87490   0.81860   0.00000  Uiso   1.00
Er66   Er    0.75000   0.37490   0.31860   0.00000  Uiso   1.00
Er67   Er    0.25000   0.87490   0.31860   0.00000  Uiso   1.00
Er68   Er    0.25000   0.37490   0.81860   0.00000  Uiso   1.00
Er69   Er    0.75000   0.12510   0.18140   0.00000  Uiso   1.00
Er70   Er    0.75000   0.62510   0.68140   0.00000  Uiso   1.00
Er71   Er    0.25000   0.12510   0.68140   0.00000  Uiso   1.00
Er72   Er    0.25000   0.62510   0.18140   0.00000  Uiso   1.00
Er73   Er    0.25000   0.12510   0.81860   0.00000  Uiso   1.00
Er74   Er    0.25000   0.62510   0.31860   0.00000  Uiso   1.00
Er75   Er    0.75000   0.12510   0.31860   0.00000  Uiso   1.00
Er76   Er    0.75000   0.62510   0.81860   0.00000  Uiso   1.00
Er77   Er    0.25000   0.87490   0.18140   0.00000  Uiso   1.00
Er78   Er    0.25000   0.37490   0.68140   0.00000  Uiso   1.00
Er79   Er    0.75000   0.87490   0.68140   0.00000  Uiso   1.00
Er80   Er    0.75000   0.37490   0.18140   0.00000  Uiso   1.00
Er81   Er    0.81860   0.75000   0.87490   0.00000  Uiso   1.00
Er82   Er    0.81860   0.25000   0.37490   0.00000  Uiso   1.00
Er83   Er    0.31860   0.75000   0.37490   0.00000  Uiso   1.00
Er84   Er    0.31860   0.25000   0.87490   0.00000  Uiso   1.00
Er85   Er    0.18140   0.75000   0.12510   0.00000  Uiso   1.00
Er86   Er    0.18140   0.25000   0.62510   0.00000  Uiso   1.00
Er87   Er    0.68140   0.75000   0.62510   0.00000  Uiso   1.00
Er88   Er    0.68140   0.25000   0.12510   0.00000  Uiso   1.00
Er89   Er    0.81860   0.25000   0.12510   0.00000  Uiso   1.00
Er90   Er    0.81860   0.75000   0.62510   0.00000  Uiso   1.00
Er91   Er    0.31860   0.25000   0.62510   0.00000  Uiso   1.00
Er92   Er    0.31860   0.75000   0.12510   0.00000  Uiso   1.00
Er93   Er    0.18140   0.25000   0.87490   0.00000  Uiso   1.00
Er94   Er    0.18140   0.75000   0.37490   0.00000  Uiso   1.00
Er95   Er    0.68140   0.25000   0.37490   0.00000  Uiso   1.00
Er96   Er    0.68140   0.75000   0.87490   0.00000  Uiso   1.00
V97    V     0.00000   0.06860   0.37460   0.00000  Uiso   1.00
Ti98   Ti    0.00000   0.12490   0.06860   0.00000  Uiso   1.00
V99    V     0.00000   0.56860   0.87460   0.00000  Uiso   1.00
Ti100  Ti    0.00000   0.62490   0.56860   0.00000  Uiso   1.00
V101   V     0.50000   0.06860   0.87460   0.00000  Uiso   1.00
Ti102  Ti    0.50000   0.12490   0.56860   0.00000  Uiso   1.00
V103   V     0.50000   0.56860   0.37460   0.00000  Uiso   1.00
Ti104  Ti    0.50000   0.62490   0.06860   0.00000  Uiso   1.00
V105   V     0.00000   0.93140   0.37460   0.00000  Uiso   1.00
Ti106  Ti    0.00000   0.87510   0.06860   0.00000  Uiso   1.00
V107   V     0.00000   0.43140   0.87460   0.00000  Uiso   1.00
Ti108  Ti    0.00000   0.37510   0.56860   0.00000  Uiso   1.00
V109   V     0.50000   0.93140   0.87460   0.00000  Uiso   1.00
Ti110  Ti    0.50000   0.87510   0.56860   0.00000  Uiso   1.00
V111   V     0.50000   0.43140   0.37460   0.00000  Uiso   1.00
Ti112  Ti    0.50000   0.37510   0.06860   0.00000  Uiso   1.00
V113   V     0.00000   0.06860   0.62540   0.00000  Uiso   1.00
Ti114  Ti    0.00000   0.12490   0.93140   0.00000  Uiso   1.00
V115   V     0.00000   0.56860   0.12540   0.00000  Uiso   1.00
Ti116  Ti    0.00000   0.62490   0.43140   0.00000  Uiso   1.00
V117   V     0.50000   0.06860   0.12540   0.00000  Uiso   1.00
Ti118  Ti    0.50000   0.12490   0.43140   0.00000  Uiso   1.00
V119   V     0.50000   0.56860   0.62540   0.00000  Uiso   1.00
Ti120  Ti    0.50000   0.62490   0.93140   0.00000  Uiso   1.00
V121   V     0.00000   0.93140   0.62540   0.00000  Uiso   1.00
Ti122  Ti    0.00000   0.87510   0.93140   0.00000  Uiso   1.00
V123   V     0.00000   0.43140   0.12540   0.00000  Uiso   1.00
Ti124  Ti    0.00000   0.37510   0.43140   0.00000  Uiso   1.00
V125   V     0.50000   0.93140   0.12540   0.00000  Uiso   1.00
Ti126  Ti    0.50000   0.87510   0.43140   0.00000  Uiso   1.00
V127   V     0.50000   0.43140   0.62540   0.00000  Uiso   1.00
Ti128  Ti    0.50000   0.37510   0.93140   0.00000  Uiso   1.00
V129   V     0.37460   0.00000   0.06860   0.00000  Uiso   1.00
Ti130  Ti    0.06860   0.00000   0.12490   0.00000  Uiso   1.00
V131   V     0.37460   0.50000   0.56860   0.00000  Uiso   1.00
Ti132  Ti    0.06860   0.50000   0.62490   0.00000  Uiso   1.00
V133   V     0.87460   0.00000   0.56860   0.00000  Uiso   1.00
Ti134  Ti    0.56860   0.00000   0.62490   0.00000  Uiso   1.00
V135   V     0.87460   0.50000   0.06860   0.00000  Uiso   1.00
Ti136  Ti    0.56860   0.50000   0.12490   0.00000  Uiso   1.00
V137   V     0.37460   0.00000   0.93140   0.00000  Uiso   1.00
Ti138  Ti    0.06860   0.00000   0.87510   0.00000  Uiso   1.00
V139   V     0.37460   0.50000   0.43140   0.00000  Uiso   1.00
Ti140  Ti    0.06860   0.50000   0.37510   0.00000  Uiso   1.00
V141   V     0.87460   0.00000   0.43140   0.00000  Uiso   1.00
Ti142  Ti    0.56860   0.00000   0.37510   0.00000  Uiso   1.00
V143   V     0.87460   0.50000   0.93140   0.00000  Uiso   1.00
Ti144  Ti    0.56860   0.50000   0.87510   0.00000  Uiso   1.00
V145   V     0.62540   0.00000   0.06860   0.00000  Uiso   1.00
Ti146  Ti    0.93140   0.00000   0.12490   0.00000  Uiso   1.00
V147   V     0.62540   0.50000   0.56860   0.00000  Uiso   1.00
Ti148  Ti    0.93140   0.50000   0.62490   0.00000  Uiso   1.00
V149   V     0.12540   0.00000   0.56860   0.00000  Uiso   1.00
Ti150  Ti    0.43140   0.00000   0.62490   0.00000  Uiso   1.00
V151   V     0.12540   0.50000   0.06860   0.00000  Uiso   1.00
Ti152  Ti    0.43140   0.50000   0.12490   0.00000  Uiso   1.00
V153   V     0.62540   0.00000   0.93140   0.00000  Uiso   1.00
Ti154  Ti    0.93140   0.00000   0.87510   0.00000  Uiso   1.00
V155   V     0.62540   0.50000   0.43140   0.00000  Uiso   1.00
Ti156  Ti    0.93140   0.50000   0.37510   0.00000  Uiso   1.00
V157   V     0.12540   0.00000   0.43140   0.00000  Uiso   1.00
Ti158  Ti    0.43140   0.00000   0.37510   0.00000  Uiso   1.00
V159   V     0.12540   0.50000   0.93140   0.00000  Uiso   1.00
Ti160  Ti    0.43140   0.50000   0.87510   0.00000  Uiso   1.00
V161   V     0.06860   0.37460   0.00000   0.00000  Uiso   1.00
Ti162  Ti    0.12490   0.06860   0.00000   0.00000  Uiso   1.00
V163   V     0.06860   0.87460   0.50000   0.00000  Uiso   1.00
Ti164  Ti    0.12490   0.56860   0.50000   0.00000  Uiso   1.00
V165   V     0.56860   0.37460   0.50000   0.00000  Uiso   1.00
Ti166  Ti    0.62490   0.06860   0.50000   0.00000  Uiso   1.00
V167   V     0.56860   0.87460   0.00000   0.00000  Uiso   1.00
Ti168  Ti    0.62490   0.56860   0.00000   0.00000  Uiso   1.00
V169   V     0.93140   0.37460   0.00000   0.00000  Uiso   1.00
Ti170  Ti    0.87510   0.06860   0.00000   0.00000  Uiso   1.00
V171   V     0.93140   0.87460   0.50000   0.00000  Uiso   1.00
Ti172  Ti    0.87510   0.56860   0.50000   0.00000  Uiso   1.00
V173   V     0.43140   0.37460   0.50000   0.00000  Uiso   1.00
Ti174  Ti    0.37510   0.06860   0.50000   0.00000  Uiso   1.00
V175   V     0.43140   0.87460   0.00000   0.00000  Uiso   1.00
Ti176  Ti    0.37510   0.56860   0.00000   0.00000  Uiso   1.00
V177   V     0.06860   0.62540   0.00000   0.00000  Uiso   1.00
Ti178  Ti    0.12490   0.93140   0.00000   0.00000  Uiso   1.00
V179   V     0.06860   0.12540   0.50000   0.00000  Uiso   1.00
Ti180  Ti    0.12490   0.43140   0.50000   0.00000  Uiso   1.00
V181   V     0.56860   0.62540   0.50000   0.00000  Uiso   1.00
Ti182  Ti    0.62490   0.93140   0.50000   0.00000  Uiso   1.00
V183   V     0.56860   0.12540   0.00000   0.00000  Uiso   1.00
Ti184  Ti    0.62490   0.43140   0.00000   0.00000  Uiso   1.00
V185   V     0.93140   0.62540   0.00000   0.00000  Uiso   1.00
Ti186  Ti    0.87510   0.93140   0.00000   0.00000  Uiso   1.00
V187   V     0.93140   0.12540   0.50000   0.00000  Uiso   1.00
Ti188  Ti    0.87510   0.43140   0.50000   0.00000  Uiso   1.00
V189   V     0.43140   0.62540   0.50000   0.00000  Uiso   1.00
Ti190  Ti    0.37510   0.93140   0.50000   0.00000  Uiso   1.00
V191   V     0.43140   0.12540   0.00000   0.00000  Uiso   1.00
Ti192  Ti    0.37510   0.43140   0.00000   0.00000  Uiso   1.00
Ce193  Ce    0.12500   0.12500   0.12500   0.00000  Uiso   1.00
Ce194  Ce    0.12500   0.62500   0.62500   0.00000  Uiso   1.00
Ce195  Ce    0.62500   0.12500   0.62500   0.00000  Uiso   1.00
Ce196  Ce    0.62500   0.62500   0.12500   0.00000  Uiso   1.00
Ce197  Ce    0.87500   0.87500   0.12500   0.00000  Uiso   1.00
Ce198  Ce    0.87500   0.37500   0.62500   0.00000  Uiso   1.00
Ce199  Ce    0.37500   0.87500   0.62500   0.00000  Uiso   1.00
Ce200  Ce    0.37500   0.37500   0.12500   0.00000  Uiso   1.00
Ce201  Ce    0.87500   0.12500   0.87500   0.00000  Uiso   1.00
Ce202  Ce    0.87500   0.62500   0.37500   0.00000  Uiso   1.00
Ce203  Ce    0.37500   0.12500   0.37500   0.00000  Uiso   1.00
Ce204  Ce    0.37500   0.62500   0.87500   0.00000  Uiso   1.00
Ce205  Ce    0.12500   0.87500   0.87500   0.00000  Uiso   1.00
Ce206  Ce    0.12500   0.37500   0.37500   0.00000  Uiso   1.00
Ce207  Ce    0.62500   0.87500   0.37500   0.00000  Uiso   1.00
Ce208  Ce    0.62500   0.37500   0.87500   0.00000  Uiso   1.00
Ce209  Ce    0.87500   0.87500   0.87500   0.00000  Uiso   1.00
Ce210  Ce    0.87500   0.37500   0.37500   0.00000  Uiso   1.00
Ce211  Ce    0.37500   0.87500   0.37500   0.00000  Uiso   1.00
Ce212  Ce    0.37500   0.37500   0.87500   0.00000  Uiso   1.00
Ce213  Ce    0.12500   0.12500   0.87500   0.00000  Uiso   1.00
Ce214  Ce    0.12500   0.62500   0.37500   0.00000  Uiso   1.00
Ce215  Ce    0.62500   0.12500   0.37500   0.00000  Uiso   1.00
Ce216  Ce    0.62500   0.62500   0.87500   0.00000  Uiso   1.00
Ce217  Ce    0.12500   0.87500   0.12500   0.00000  Uiso   1.00
Ce218  Ce    0.12500   0.37500   0.62500   0.00000  Uiso   1.00
Ce219  Ce    0.62500   0.87500   0.62500   0.00000  Uiso   1.00
Ce220  Ce    0.62500   0.37500   0.12500   0.00000  Uiso   1.00
Ce221  Ce    0.87500   0.12500   0.12500   0.00000  Uiso   1.00
Ce222  Ce    0.87500   0.62500   0.62500   0.00000  Uiso   1.00
Ce223  Ce    0.37500   0.12500   0.62500   0.00000  Uiso   1.00
Ce224  Ce    0.37500   0.62500   0.12500   0.00000  Uiso   1.00
S225   S     0.12500   0.12500   0.37500   0.00000  Uiso   1.00
S226   S     0.87500   0.87500   0.37500   0.00000  Uiso   1.00
S227   S     0.37500   0.37500   0.37500   0.00000  Uiso   1.00
S228   S     0.87500   0.12500   0.62500   0.00000  Uiso   1.00
S229   S     0.37500   0.12500   0.12500   0.00000  Uiso   1.00
S230   S     0.12500   0.87500   0.62500   0.00000  Uiso   1.00
S231   S     0.12500   0.37500   0.12500   0.00000  Uiso   1.00
S232   S     0.37500   0.62500   0.62500   0.00000  Uiso   1.00
S233   S     0.37500   0.87500   0.87500   0.00000  Uiso   1.00
S234   S     0.62500   0.87500   0.12500   0.00000  Uiso   1.00
S235   S     0.62500   0.37500   0.62500   0.00000  Uiso   1.00
S236   S     0.62500   0.12500   0.87500   0.00000  Uiso   1.00
S237   S     0.62500   0.62500   0.37500   0.00000  Uiso   1.00
S238   S     0.87500   0.37500   0.87500   0.00000  Uiso   1.00
S239   S     0.12500   0.62500   0.87500   0.00000  Uiso   1.00
S240   S     0.87500   0.62500   0.12500   0.00000  Uiso   1.00
S241   S     0.87500   0.87500   0.62500   0.00000  Uiso   1.00
S242   S     0.87500   0.37500   0.12500   0.00000  Uiso   1.00
S243   S     0.37500   0.87500   0.12500   0.00000  Uiso   1.00
S244   S     0.12500   0.12500   0.62500   0.00000  Uiso   1.00
S245   S     0.12500   0.87500   0.37500   0.00000  Uiso   1.00
S246   S     0.87500   0.12500   0.37500   0.00000  Uiso   1.00
S247   S     0.37500   0.62500   0.37500   0.00000  Uiso   1.00
S248   S     0.62500   0.87500   0.87500   0.00000  Uiso   1.00
S249   S     0.62500   0.37500   0.37500   0.00000  Uiso   1.00
S250   S     0.12500   0.37500   0.87500   0.00000  Uiso   1.00
S251   S     0.62500   0.12500   0.12500   0.00000  Uiso   1.00
S252   S     0.62500   0.62500   0.62500   0.00000  Uiso   1.00
S253   S     0.37500   0.12500   0.87500   0.00000  Uiso   1.00
S254   S     0.37500   0.37500   0.62500   0.00000  Uiso   1.00
S255   S     0.87500   0.62500   0.87500   0.00000  Uiso   1.00
S256   S     0.12500   0.62500   0.12500   0.00000  Uiso   1.00
loop_
_geom_bond_atom_site_label_1
_geom_bond_atom_site_label_2
_geom_bond_distance
_geom_bond_site_symmetry_2
_ccdc_geom_bond_type
Er1    Er14    6.860   .     S
Er1    Ce193   6.857   .     S
Er1    S225    6.857   .     S
Er2    Er13    6.860   .     S
Er2    Ce194   6.857   .     S
Er2    S239    6.857   .     S
Er3    Er16    6.860   .     S
Er3    Ce195   6.857   .     S
Er3    S236    6.857   .     S
Er4    Er15    6.860   .     S
Er4    Ce196   6.857   .     S
Er4    S237    6.857   .     S
Er5    Er10    6.860   .     S
Er5    Ce197   6.857   .     S
Er5    S226    6.857   .     S
Er6    Er9     6.860   .     S
Er6    Ce198   6.857   .     S
Er6    S238    6.857   .     S
Er7    Er12    6.860   .     S
Er7    Ce199   6.857   .     S
Er7    S233    6.857   .     S
Er8    Er11    6.860   .     S
Er8    Ce200   6.857   .     S
Er8    S227    6.857   .     S
Er9    Ce201   6.857   .     S
Er9    S228    6.857   .     S
Er10   Ce202   6.857   .     S
Er10   S240    6.857   .     S
Er11   Ce203   6.857   .     S
Er11   S229    6.857   .     S
Er12   Ce204   6.857   .     S
Er12   S232    6.857   .     S
Er13   Ce205   6.857   .     S
Er13   S230    6.857   .     S
Er14   Ce206   6.857   .     S
Er14   S231    6.857   .     S
Er15   Ce207   6.857   .     S
Er15   S234    6.857   .     S
Er16   Ce208   6.857   .     S
Er16   S235    6.857   .     S
Er17   Er31    6.860   .     S
Er17   Ce193   6.857   .     S
Er17   S229    6.857   .     S
Er18   Er32    6.860   .     S
Er18   Ce194   6.857   .     S
Er18   S232    6.857   .     S
Er19   Er29    6.860   .     S
Er19   Ce195   6.857   .     S
Er19   S228    6.857   .     S
Er20   Er30    6.860   .     S
Er20   Ce196   6.857   .     S
Er20   S240    6.857   .     S
Er21   Er27    6.860   .     S
Er21   Ce205   6.857   .     S
Er21   S233    6.857   .     S
Er22   Er28    6.860   .     S
Er22   Ce206   6.857   .     S
Er22   S227    6.857   .     S
Er23   Er25    6.860   .     S
Er23   Ce207   6.857   .     S
Er23   S226    6.857   .     S
Er24   Er26    6.860   .     S
Er24   Ce208   6.857   .     S
Er24   S238    6.857   .     S
Er25   Ce197   6.857   .     S
Er25   S234    6.857   .     S
Er26   Ce198   6.857   .     S
Er26   S235    6.857   .     S
Er27   Ce199   6.857   .     S
Er27   S230    6.857   .     S
Er28   Ce200   6.857   .     S
Er28   S231    6.857   .     S
Er29   Ce201   6.857   .     S
Er29   S236    6.857   .     S
Er30   Ce202   6.857   .     S
Er30   S237    6.857   .     S
Er31   Ce203   6.857   .     S
Er31   S225    6.857   .     S
Er32   Ce204   6.857   .     S
Er32   S239    6.857   .     S
Er33   Er48    6.860   .     S
Er33   Ce193   6.857   .     S
Er33   S231    6.857   .     S
Er34   Er47    6.860   .     S
Er34   Ce194   6.857   .     S
Er34   S230    6.857   .     S
Er35   Er46    6.860   .     S
Er35   Ce195   6.857   .     S
Er35   S235    6.857   .     S
Er36   Er45    6.860   .     S
Er36   Ce196   6.857   .     S
Er36   S234    6.857   .     S
Er37   Er44    6.860   .     S
Er37   Ce201   6.857   .     S
Er37   S238    6.857   .     S
Er38   Er43    6.860   .     S
Er38   Ce202   6.857   .     S
Er38   S226    6.857   .     S
Er39   Er42    6.860   .     S
Er39   Ce203   6.857   .     S
Er39   S227    6.857   .     S
Er40   Er41    6.860   .     S
Er40   Ce204   6.857   .     S
Er40   S233    6.857   .     S
Er41   Ce205   6.857   .     S
Er41   S239    6.857   .     S
Er42   Ce206   6.857   .     S
Er42   S225    6.857   .     S
Er43   Ce207   6.857   .     S
Er43   S237    6.857   .     S
Er44   Ce208   6.857   .     S
Er44   S236    6.857   .     S
Er45   Ce197   6.857   .     S
Er45   S240    6.857   .     S
Er46   Ce198   6.857   .     S
Er46   S228    6.857   .     S
Er47   Ce199   6.857   .     S
Er47   S232    6.857   .     S
Er48   Ce200   6.857   .     S
Er48   S229    6.857   .     S
Er49   Er62    6.860   .     S
Er49   Ce209   6.857   .     S
Er49   S241    6.857   .     S
Er50   Er61    6.860   .     S
Er50   Ce210   6.857   .     S
Er50   S242    6.857   .     S
Er51   Er64    6.860   .     S
Er51   Ce211   6.857   .     S
Er51   S243    6.857   .     S
Er52   Er63    6.860   .     S
Er52   Ce212   6.857   .     S
Er52   S254    6.857   .     S
Er53   Er58    6.860   .     S
Er53   Ce213   6.857   .     S
Er53   S244    6.857   .     S
Er54   Er57    6.860   .     S
Er54   Ce214   6.857   .     S
Er54   S256    6.857   .     S
Er55   Er60    6.860   .     S
Er55   Ce215   6.857   .     S
Er55   S251    6.857   .     S
Er56   Er59    6.860   .     S
Er56   Ce216   6.857   .     S
Er56   S252    6.857   .     S
Er57   Ce217   6.857   .     S
Er57   S245    6.857   .     S
Er58   Ce218   6.857   .     S
Er58   S250    6.857   .     S
Er59   Ce219   6.857   .     S
Er59   S248    6.857   .     S
Er60   Ce220   6.857   .     S
Er60   S249    6.857   .     S
Er61   Ce221   6.857   .     S
Er61   S246    6.857   .     S
Er62   Ce222   6.857   .     S
Er62   S255    6.857   .     S
Er63   Ce223   6.857   .     S
Er63   S253    6.857   .     S
Er64   Ce224   6.857   .     S
Er64   S247    6.857   .     S
Er65   Er79    6.860   .     S
Er65   Ce209   6.857   .     S
Er65   S248    6.857   .     S
Er66   Er80    6.860   .     S
Er66   Ce210   6.857   .     S
Er66   S249    6.857   .     S
Er67   Er77    6.860   .     S
Er67   Ce211   6.857   .     S
Er67   S245    6.857   .     S
Er68   Er78    6.860   .     S
Er68   Ce212   6.857   .     S
Er68   S250    6.857   .     S
Er69   Er75    6.860   .     S
Er69   Ce221   6.857   .     S
Er69   S251    6.857   .     S
Er70   Er76    6.860   .     S
Er70   Ce222   6.857   .     S
Er70   S252    6.857   .     S
Er71   Er73    6.860   .     S
Er71   Ce223   6.857   .     S
Er71   S244    6.857   .     S
Er72   Er74    6.860   .     S
Er72   Ce224   6.857   .     S
Er72   S256    6.857   .     S
Er73   Ce213   6.857   .     S
Er73   S253    6.857   .     S
Er74   Ce214   6.857   .     S
Er74   S247    6.857   .     S
Er75   Ce215   6.857   .     S
Er75   S246    6.857   .     S
Er76   Ce216   6.857   .     S
Er76   S255    6.857   .     S
Er77   Ce217   6.857   .     S
Er77   S243    6.857   .     S
Er78   Ce218   6.857   .     S
Er78   S254    6.857   .     S
Er79   Ce219   6.857   .     S
Er79   S241    6.857   .     S
Er80   Ce220   6.857   .     S
Er80   S242    6.857   .     S
Er81   Er96    6.860   .     S
Er81   Ce209   6.857   .     S
Er81   S255    6.857   .     S
Er82   Er95    6.860   .     S
Er82   Ce210   6.857   .     S
Er82   S246    6.857   .     S
Er83   Er94    6.860   .     S
Er83   Ce211   6.857   .     S
Er83   S247    6.857   .     S
Er84   Er93    6.860   .     S
Er84   Ce212   6.857   .     S
Er84   S253    6.857   .     S
Er85   Er92    6.860   .     S
Er85   Ce217   6.857   .     S
Er85   S256    6.857   .     S
Er86   Er91    6.860   .     S
Er86   Ce218   6.857   .     S
Er86   S244    6.857   .     S
Er87   Er90    6.860   .     S
Er87   Ce219   6.857   .     S
Er87   S252    6.857   .     S
Er88   Er89    6.860   .     S
Er88   Ce220   6.857   .     S
Er88   S251    6.857   .     S
Er89   Ce221   6.857   .     S
Er89   S242    6.857   .     S
Er90   Ce222   6.857   .     S
Er90   S241    6.857   .     S
Er91   Ce223   6.857   .     S
Er91   S254    6.857   .     S
Er92   Ce224   6.857   .     S
Er92   S243    6.857   .     S
Er93   Ce213   6.857   .     S
Er93   S250    6.857   .     S
Er94   Ce214   6.857   .     S
Er94   S245    6.857   .     S
Er95   Ce215   6.857   .     S
Er95   S249    6.857   .     S
Er96   Ce216   6.857   .     S
Er96   S248    6.857   .     S
V97    S246    6.857   1_455 S
V97    S225    6.857   .     S
V97    V105    6.860   1_545 S
Ti98   Ce221   6.857   1_455 S
Ti98   Ce193   6.857   .     S
Ti98   Ti114   6.860   1_554 S
V99    S255    6.857   1_455 S
V99    S239    6.857   .     S
V99    V107    6.860   .     S
Ti100  Ce222   6.857   1_455 S
Ti100  Ce194   6.857   .     S
Ti100  Ti116   6.860   .     S
V101   S253    6.857   .     S
V101   S236    6.857   .     S
V101   V109    6.860   1_545 S
Ti102  Ce223   6.857   .     S
Ti102  Ce195   6.857   .     S
Ti102  Ti118   6.860   .     S
V103   S247    6.857   .     S
V103   S237    6.857   .     S
V103   V111    6.860   .     S
Ti104  Ce224   6.857   .     S
Ti104  Ce196   6.857   .     S
Ti104  Ti120   6.860   1_554 S
V105   S245    6.857   .     S
V105   S226    6.857   1_455 S
V105   V97     6.860   1_565 S
Ti106  Ce217   6.857   .     S
Ti106  Ce197   6.857   1_455 S
Ti106  Ti122   6.860   1_554 S
V107   S250    6.857   .     S
V107   S238    6.857   1_455 S
Ti108  Ce218   6.857   .     S
Ti108  Ce198   6.857   1_455 S
Ti108  Ti124   6.860   .     S
V109   S248    6.857   .     S
V109   S233    6.857   .     S
V109   V101    6.860   1_565 S
Ti110  Ce219   6.857   .     S
Ti110  Ce199   6.857   .     S
Ti110  Ti126   6.860   .     S
V111   S249    6.857   .     S
V111   S227    6.857   .     S
Ti112  Ce220   6.857   .     S
Ti112  Ce200   6.857   .     S
Ti112  Ti128   6.860   1_554 S
V113   S244    6.857   .     S
V113   S228    6.857   1_455 S
V113   V121    6.860   1_545 S
Ti114  Ce213   6.857   .     S
Ti114  Ce201   6.857   1_455 S
Ti114  Ti98    6.860   1_556 S
V115   S256    6.857   .     S
V115   S240    6.857   1_455 S
V115   V123    6.860   .     S
Ti116  Ce214   6.857   .     S
Ti116  Ce202   6.857   1_455 S
V117   S251    6.857   .     S
V117   S229    6.857   .     S
V117   V125    6.860   1_545 S
Ti118  Ce215   6.857   .     S
Ti118  Ce203   6.857   .     S
V119   S252    6.857   .     S
V119   S232    6.857   .     S
V119   V127    6.860   .     S
Ti120  Ce216   6.857   .     S
Ti120  Ce204   6.857   .     S
Ti120  Ti104   6.860   1_556 S
V121   S241    6.857   1_455 S
V121   S230    6.857   .     S
V121   V113    6.860   1_565 S
Ti122  Ce209   6.857   1_455 S
Ti122  Ce205   6.857   .     S
Ti122  Ti106   6.860   1_556 S
V123   S242    6.857   1_455 S
V123   S231    6.857   .     S
Ti124  Ce210   6.857   1_455 S
Ti124  Ce206   6.857   .     S
V125   S243    6.857   .     S
V125   S234    6.857   .     S
V125   V117    6.860   1_565 S
Ti126  Ce211   6.857   .     S
Ti126  Ce207   6.857   .     S
V127   S254    6.857   .     S
V127   S235    6.857   .     S
Ti128  Ce212   6.857   .     S
Ti128  Ce208   6.857   .     S
Ti128  Ti112   6.860   1_556 S
V129   S243    6.857   1_545 S
V129   S229    6.857   .     S
V129   V137    6.860   1_554 S
Ti130  Ce217   6.857   1_545 S
Ti130  Ce193   6.857   .     S
Ti130  Ti146   6.860   1_455 S
V131   S254    6.857   .     S
V131   S232    6.857   .     S
V131   V139    6.860   .     S
Ti132  Ce218   6.857   .     S
Ti132  Ce194   6.857   .     S
Ti132  Ti148   6.860   1_455 S
V133   S241    6.857   1_545 S
V133   S228    6.857   .     S
V133   V141    6.860   .     S
Ti134  Ce219   6.857   1_545 S
Ti134  Ce195   6.857   .     S
Ti134  Ti150   6.860   .     S
V135   S242    6.857   .     S
V135   S240    6.857   .     S
V135   V143    6.860   1_554 S
Ti136  Ce220   6.857   .     S
Ti136  Ce196   6.857   .     S
Ti136  Ti152   6.860   .     S
V137   S253    6.857   .     S
V137   S233    6.857   1_545 S
V137   V129    6.860   1_556 S
Ti138  Ce213   6.857   .     S
Ti138  Ce205   6.857   1_545 S
Ti138  Ti154   6.860   1_455 S
V139   S247    6.857   .     S
V139   S227    6.857   .     S
Ti140  Ce214   6.857   .     S
Ti140  Ce206   6.857   .     S
Ti140  Ti156   6.860   1_455 S
V141   S246    6.857   .     S
V141   S226    6.857   1_545 S
Ti142  Ce215   6.857   .     S
Ti142  Ce207   6.857   1_545 S
Ti142  Ti158   6.860   .     S
V143   S255    6.857   .     S
V143   S238    6.857   .     S
V143   V135    6.860   1_556 S
Ti144  Ce216   6.857   .     S
Ti144  Ce208   6.857   .     S
Ti144  Ti160   6.860   .     S
V145   S251    6.857   .     S
V145   S234    6.857   1_545 S
V145   V153    6.860   1_554 S
Ti146  Ce221   6.857   .     S
Ti146  Ce197   6.857   1_545 S
Ti146  Ti130   6.860   1_655 S
V147   S252    6.857   .     S
V147   S235    6.857   .     S
V147   V155    6.860   .     S
Ti148  Ce222   6.857   .     S
Ti148  Ce198   6.857   .     S
Ti148  Ti132   6.860   1_655 S
V149   S244    6.857   .     S
V149   S230    6.857   1_545 S
V149   V157    6.860   .     S
Ti150  Ce223   6.857   .     S
Ti150  Ce199   6.857   1_545 S
V151   S256    6.857   .     S
V151   S231    6.857   .     S
V151   V159    6.860   1_554 S
Ti152  Ce224   6.857   .     S
Ti152  Ce200   6.857   .     S
V153   S248    6.857   1_545 S
V153   S236    6.857   .     S
V153   V145    6.860   1_556 S
Ti154  Ce209   6.857   1_545 S
Ti154  Ce201   6.857   .     S
Ti154  Ti138   6.860   1_655 S
V155   S249    6.857   .     S
V155   S237    6.857   .     S
Ti156  Ce210   6.857   .     S
Ti156  Ce202   6.857   .     S
Ti156  Ti140   6.860   1_655 S
V157   S245    6.857   1_545 S
V157   S225    6.857   .     S
Ti158  Ce211   6.857   1_545 S
Ti158  Ce203   6.857   .     S
V159   S250    6.857   .     S
V159   S239    6.857   .     S
V159   V151    6.860   1_556 S
Ti160  Ce212   6.857   .     S
Ti160  Ce204   6.857   .     S
V161   S250    6.857   1_554 S
V161   S231    6.857   .     S
V161   V169    6.860   1_455 S
Ti162  Ce213   6.857   1_554 S
Ti162  Ce193   6.857   .     S
Ti162  Ti178   6.860   1_545 S
V163   S245    6.857   .     S
V163   S230    6.857   .     S
V163   V171    6.860   1_455 S
Ti164  Ce214   6.857   .     S
Ti164  Ce194   6.857   .     S
Ti164  Ti180   6.860   .     S
V165   S249    6.857   .     S
V165   S235    6.857   .     S
V165   V173    6.860   .     S
Ti166  Ce215   6.857   .     S
Ti166  Ce195   6.857   .     S
Ti166  Ti182   6.860   1_545 S
V167   S248    6.857   1_554 S
V167   S234    6.857   .     S
V167   V175    6.860   .     S
Ti168  Ce216   6.857   1_554 S
Ti168  Ce196   6.857   .     S
Ti168  Ti184   6.860   .     S
V169   S242    6.857   .     S
V169   S238    6.857   1_554 S
V169   V161    6.860   1_655 S
Ti170  Ce221   6.857   .     S
Ti170  Ce201   6.857   1_554 S
Ti170  Ti186   6.860   1_545 S
V171   S241    6.857   .     S
V171   S226    6.857   .     S
V171   V163    6.860   1_655 S
Ti172  Ce222   6.857   .     S
Ti172  Ce202   6.857   .     S
Ti172  Ti188   6.860   .     S
V173   S254    6.857   .     S
V173   S227    6.857   .     S
Ti174  Ce223   6.857   .     S
Ti174  Ce203   6.857   .     S
Ti174  Ti190   6.860   1_545 S
V175   S243    6.857   .     S
V175   S233    6.857   1_554 S
Ti176  Ce224   6.857   .     S
Ti176  Ce204   6.857   1_554 S
Ti176  Ti192   6.860   .     S
V177   S256    6.857   .     S
V177   S239    6.857   1_554 S
V177   V185    6.860   1_455 S
Ti178  Ce217   6.857   .     S
Ti178  Ce205   6.857   1_554 S
Ti178  Ti162   6.860   1_565 S
V179   S244    6.857   .     S
V179   S225    6.857   .     S
V179   V187    6.860   1_455 S
Ti180  Ce218   6.857   .     S
Ti180  Ce206   6.857   .     S
V181   S252    6.857   .     S
V181   S237    6.857   .     S
V181   V189    6.860   .     S
Ti182  Ce219   6.857   .     S
Ti182  Ce207   6.857   .     S
Ti182  Ti166   6.860   1_565 S
V183   S251    6.857   .     S
V183   S236    6.857   1_554 S
V183   V191    6.860   .     S
Ti184  Ce220   6.857   .     S
Ti184  Ce208   6.857   1_554 S
V185   S255    6.857   1_554 S
V185   S240    6.857   .     S
V185   V177    6.860   1_655 S
Ti186  Ce209   6.857   1_554 S
Ti186  Ce197   6.857   .     S
Ti186  Ti170   6.860   1_565 S
V187   S246    6.857   .     S
V187   S228    6.857   .     S
V187   V179    6.860   1_655 S
Ti188  Ce210   6.857   .     S
Ti188  Ce198   6.857   .     S
V189   S247    6.857   .     S
V189   S232    6.857   .     S
Ti190  Ce211   6.857   .     S
Ti190  Ce199   6.857   .     S
Ti190  Ti174   6.860   1_565 S
V191   S253    6.857   1_554 S
V191   S229    6.857   .     S
Ti192  Ce212   6.857   1_554 S
Ti192  Ce200   6.857   .     S
Ce197  Ti106   6.857   1_655 S
Ce197  Ti146   6.857   1_565 S
Ce198  Ti108   6.857   1_655 S
Ce199  Ti150   6.857   1_565 S
Ce201  Ti114   6.857   1_655 S
Ce201  Ti170   6.857   1_556 S
Ce202  Ti116   6.857   1_655 S
Ce204  Ti176   6.857   1_556 S
Ce205  Ti138   6.857   1_565 S
Ce205  Ti178   6.857   1_556 S
Ce207  Ti142   6.857   1_565 S
Ce208  Ti184   6.857   1_556 S
Ce209  Ti122   6.857   1_655 S
Ce209  Ti154   6.857   1_565 S
Ce209  Ti186   6.857   1_556 S
Ce210  Ti124   6.857   1_655 S
Ce211  Ti158   6.857   1_565 S
Ce212  Ti192   6.857   1_556 S
Ce213  Ti162   6.857   1_556 S
Ce216  Ti168   6.857   1_556 S
Ce217  Ti130   6.857   1_565 S
Ce219  Ti134   6.857   1_565 S
Ce221  Ti98    6.857   1_655 S
Ce222  Ti100   6.857   1_655 S
S226   V105    6.857   1_655 S
S226   V141    6.857   1_565 S
S228   V113    6.857   1_655 S
S230   V149    6.857   1_565 S
S233   V137    6.857   1_565 S
S233   V175    6.857   1_556 S
S234   V145    6.857   1_565 S
S236   V183    6.857   1_556 S
S238   V169    6.857   1_556 S
S238   V107    6.857   1_655 S
S239   V177    6.857   1_556 S
S240   V115    6.857   1_655 S
S241   V121    6.857   1_655 S
S241   V133    6.857   1_565 S
S242   V123    6.857   1_655 S
S243   V129    6.857   1_565 S
S245   V157    6.857   1_565 S
S246   V97     6.857   1_655 S
S248   V153    6.857   1_565 S
S248   V167    6.857   1_556 S
S250   V161    6.857   1_556 S
S253   V191    6.857   1_556 S
S255   V185    6.857   1_556 S
S255   V99     6.857   1_655 S
