data_cee
_audit_creation_date              2019-09-09
_audit_creation_method            'Materials Studio'
_symmetry_space_group_name_H-M    'P1'
_symmetry_Int_Tables_number       1
_symmetry_cell_setting            triclinic
loop_
_symmetry_equiv_pos_as_xyz
  x,y,z
_cell_length_a                    33.3390
_cell_length_b                    33.3390
_cell_length_c                    29.8120
_cell_angle_alpha                 90.0000
_cell_angle_beta                  90.0000
_cell_angle_gamma                 120.0000
loop_
_atom_site_label
_atom_site_type_symbol
_atom_site_fract_x
_atom_site_fract_y
_atom_site_fract_z
_atom_site_U_iso_or_equiv
_atom_site_adp_type
_atom_site_occupancy
V1     V     0.00000   0.69980   0.00000   0.00000  Uiso   1.00
V2     V     0.30020   0.30020   0.00000   0.00000  Uiso   1.00
V3     V     0.69980   0.00000   0.00000   0.00000  Uiso   1.00
V4     V     0.00000   0.30020   0.00000   0.00000  Uiso   1.00
V5     V     0.69980   0.69980   0.00000   0.00000  Uiso   1.00
V6     V     0.30020  -0.00000   0.00000   0.00000  Uiso   1.00
Er7    Er    0.00000   0.00000   0.00000   0.00000  Uiso   1.00
Ti8    Ti    0.00000   0.50000   0.25000   0.00000  Uiso   1.00
Ti9    Ti    0.50000   0.50000   0.25000   0.00000  Uiso   1.00
Ti10   Ti    0.50000   0.00000   0.25000   0.00000  Uiso   1.00
V11    V     0.00000   0.69980   0.50000   0.00000  Uiso   1.00
V12    V     0.30020   0.30020   0.50000   0.00000  Uiso   1.00
V13    V     0.69980   0.00000   0.50000   0.00000  Uiso   1.00
V14    V     0.00000   0.30020   0.50000   0.00000  Uiso   1.00
V15    V     0.69980   0.69980   0.50000   0.00000  Uiso   1.00
V16    V     0.30020  -0.00000   0.50000   0.00000  Uiso   1.00
Er17   Er    0.00000   0.00000   0.50000   0.00000  Uiso   1.00
Ti18   Ti    0.00000   0.50000   0.75000   0.00000  Uiso   1.00
Ti19   Ti    0.50000   0.50000   0.75000   0.00000  Uiso   1.00
Ti20   Ti    0.50000   0.00000   0.75000   0.00000  Uiso   1.00
loop_
_geom_bond_atom_site_label_1
_geom_bond_atom_site_label_2
_geom_bond_distance
_geom_bond_site_symmetry_2
_ccdc_geom_bond_type
V1     Ti18    9.996   1_554 S
V1     Ti8     9.996   .     S
V1     Er7    10.008   1_565 S
V2     Ti19    9.996   1_554 S
V2     Ti9     9.996   .     S
V2     Er7    10.008   .     S
V3     Ti20    9.996   1_554 S
V3     Ti10    9.996   .     S
V3     Er7    10.008   1_655 S
V4     Ti18    9.996   1_554 S
V4     Ti8     9.996   .     S
V4     Er7    10.008   .     S
V5     Ti19    9.996   1_554 S
V5     Ti9     9.996   .     S
V5     Er7    10.008   1_665 S
V6     Ti20    9.996   1_554 S
V6     Ti10    9.996   .     S
V6     Er7    10.008   .     S
Er7    V3     10.008   1_455 S
Er7    V1     10.008   1_545 S
Er7    V5     10.008   1_445 S
Ti8    V14     9.996   .     S
Ti8    V11     9.996   .     S
Ti9    V15     9.996   .     S
Ti9    V12     9.996   .     S
Ti10   V16     9.996   .     S
Ti10   V13     9.996   .     S
V11    Ti18    9.996   .     S
V11    Er17   10.008   1_565 S
V12    Ti19    9.996   .     S
V12    Er17   10.008   .     S
V13    Ti20    9.996   .     S
V13    Er17   10.008   1_655 S
V14    Ti18    9.996   .     S
V14    Er17   10.008   .     S
V15    Ti19    9.996   .     S
V15    Er17   10.008   1_665 S
V16    Ti20    9.996   .     S
V16    Er17   10.008   .     S
Er17   V13    10.008   1_455 S
Er17   V11    10.008   1_545 S
Er17   V15    10.008   1_445 S
Ti18   V4      9.996   1_556 S
Ti18   V1      9.996   1_556 S
Ti19   V5      9.996   1_556 S
Ti19   V2      9.996   1_556 S
Ti20   V6      9.996   1_556 S
Ti20   V3      9.996   1_556 S
