data_cef
_audit_creation_date              2019-09-09
_audit_creation_method            'Materials Studio'
_symmetry_space_group_name_H-M    'P1'
_symmetry_Int_Tables_number       1
_symmetry_cell_setting            triclinic
loop_
_symmetry_equiv_pos_as_xyz
  x,y,z
_cell_length_a                    30.4780
_cell_length_b                    30.4780
_cell_length_c                    23.1440
_cell_angle_alpha                 90.0000
_cell_angle_beta                  90.0000
_cell_angle_gamma                 120.0000
loop_
_atom_site_label
_atom_site_type_symbol
_atom_site_fract_x
_atom_site_fract_y
_atom_site_fract_z
_atom_site_U_iso_or_equiv
_atom_site_adp_type
_atom_site_occupancy
V1     V     0.36470   0.18235   0.26190   0.00000  Uiso   1.00
V2     V     0.81765   0.18235   0.26190   0.00000  Uiso   1.00
V3     V     0.81765   0.63530   0.26190   0.00000  Uiso   1.00
V4     V     0.36470   0.18235   0.73810   0.00000  Uiso   1.00
V5     V     0.81765   0.18235   0.73810   0.00000  Uiso   1.00
V6     V     0.81765   0.63530   0.73810   0.00000  Uiso   1.00
Er7    Er    0.66667   0.33333   0.00000   0.00000  Uiso   1.00
Ti8    Ti    0.09130   0.18260   0.50000   0.00000  Uiso   1.00
Ti9    Ti    0.81740   0.90870   0.50000   0.00000  Uiso   1.00
Ti10   Ti    0.09130   0.90870   0.50000   0.00000  Uiso   1.00
loop_
_geom_bond_atom_site_label_1
_geom_bond_atom_site_label_2
_geom_bond_distance
_geom_bond_site_symmetry_2
_ccdc_geom_bond_type
V1     Ti8     9.993   .     S
V1     Ti10    9.993   1_545 S
V1     Er7    10.013   .     S
V2     Ti9     9.993   1_545 S
V2     Ti8     9.993   1_655 S
V2     Er7    10.013   .     S
V3     Ti10    9.993   1_655 S
V3     Ti9     9.993   .     S
V3     Er7    10.013   .     S
V4     Ti8     9.993   .     S
V4     Ti10    9.993   1_545 S
V4     Er7    10.013   1_556 S
V5     Ti9     9.993   1_545 S
V5     Ti8     9.993   1_655 S
V5     Er7    10.013   1_556 S
V6     Ti10    9.993   1_655 S
V6     Ti9     9.993   .     S
V6     Er7    10.013   1_556 S
Er7    V4     10.013   1_554 S
Er7    V5     10.013   1_554 S
Er7    V6     10.013   1_554 S
Ti8    V2      9.993   1_455 S
Ti8    V5      9.993   1_455 S
Ti9    V2      9.993   1_565 S
Ti9    V5      9.993   1_565 S
Ti10   V3      9.993   1_455 S
Ti10   V6      9.993   1_455 S
Ti10   V1      9.993   1_565 S
Ti10   V4      9.993   1_565 S
