data_cen
_audit_creation_date              2018-01-08
_audit_creation_method            'Materials Studio'
_symmetry_space_group_name_H-M    'P1'
_symmetry_Int_Tables_number       1
_symmetry_cell_setting            triclinic
loop_
_symmetry_equiv_pos_as_xyz
  x,y,z
_cell_length_a                    10.0000
_cell_length_b                    10.0000
_cell_length_c                    10.0000
_cell_angle_alpha                 90.0000
_cell_angle_beta                  90.0000
_cell_angle_gamma                 120.0000
loop_
_atom_site_label
_atom_site_type_symbol
_atom_site_fract_x
_atom_site_fract_y
_atom_site_fract_z
_atom_site_U_iso_or_equiv
_atom_site_adp_type
_atom_site_occupancy
V1     V     0.00000   0.00000   0.00000   0.00000  Uiso   1.00
Er2    Er    0.33333   0.66667   0.23170   0.00000  Uiso   1.00
Er3    Er    0.66667   0.33333   0.23170   0.00000  Uiso   1.00
Er4    Er    0.66667   0.33333   0.76830   0.00000  Uiso   1.00
Er5    Er    0.33333   0.66667   0.76830   0.00000  Uiso   1.00
loop_
_geom_bond_atom_site_label_1
_geom_bond_atom_site_label_2
_geom_bond_distance
_geom_bond_site_symmetry_2
_ccdc_geom_bond_type
V1     Er5     6.221   1_544 S
V1     Er5     6.221   1_554 S
V1     Er5     6.221   1_444 S
V1     Er4     6.221   1_454 S
V1     Er4     6.221   1_444 S
V1     Er4     6.221   1_554 S
V1     Er3     6.221   1_455 S
V1     Er3     6.221   1_445 S
V1     Er2     6.221   1_545 S
V1     Er2     6.221   1_445 S
Er2    V1      6.221   1_565 S
Er2    V1      6.221   1_665 S
Er2    Er5     5.366   .     S
Er3    V1      6.221   1_655 S
Er3    V1      6.221   1_665 S
Er3    Er4     5.366   .     S
Er4    V1      6.221   1_656 S
Er4    V1      6.221   1_556 S
Er4    V1      6.221   1_666 S
Er5    V1      6.221   1_566 S
Er5    V1      6.221   1_666 S
Er5    V1      6.221   1_556 S
