data_ceq
_audit_creation_date              2018-10-08
_audit_creation_method            'Materials Studio'
_symmetry_space_group_name_H-M    'P1'
_symmetry_Int_Tables_number       1
_symmetry_cell_setting            triclinic
loop_
_symmetry_equiv_pos_as_xyz
  x,y,z
_cell_length_a                    24.6690
_cell_length_b                    24.6690
_cell_length_c                    23.4680
_cell_angle_alpha                 90.0000
_cell_angle_beta                  90.0000
_cell_angle_gamma                 120.0000
loop_
_atom_site_label
_atom_site_type_symbol
_atom_site_fract_x
_atom_site_fract_y
_atom_site_fract_z
_atom_site_U_iso_or_equiv
_atom_site_adp_type
_atom_site_occupancy
V1     V     0.00000   0.00000   0.00000   0.00000  Uiso   1.00
Er2    Er    0.33333   0.66667   0.50000   0.00000  Uiso   1.00
Er3    Er    0.66667   0.33333   0.50000   0.00000  Uiso   1.00
Ti4    Ti   -0.00000   0.29400   0.29410   0.00000  Uiso   1.00
Ti5    Ti    0.70600   0.70600   0.29410   0.00000  Uiso   1.00
Ti6    Ti    0.29400   0.00000   0.29410   0.00000  Uiso   1.00
Ti7    Ti   -0.00000   0.29400   0.70590   0.00000  Uiso   1.00
Ti8    Ti    0.70600   0.70600   0.70590   0.00000  Uiso   1.00
Ti9    Ti    0.29400   0.00000   0.70590   0.00000  Uiso   1.00
loop_
_geom_bond_atom_site_label_1
_geom_bond_atom_site_label_2
_geom_bond_distance
_geom_bond_site_symmetry_2
_ccdc_geom_bond_type
V1     Ti7    10.012   1_554 S
V1     Ti8    10.012   1_444 S
V1     Ti9    10.012   1_554 S
V1     Ti4    10.012   .     S
V1     Ti5    10.012   1_445 S
V1     Ti6    10.012   .     S
Er2    Ti9     9.994   1_565 S
Er2    Ti7     9.994   .     S
Er2    Ti8     9.994   .     S
Er2    Ti6     9.994   1_565 S
Er2    Ti4     9.994   .     S
Er2    Ti5     9.994   .     S
Er3    Ti4     9.994   1_655 S
Er3    Ti6     9.994   .     S
Er3    Ti5     9.994   .     S
Er3    Ti7     9.994   1_655 S
Er3    Ti9     9.994   .     S
Er3    Ti8     9.994   .     S
Ti4    Er3     9.994   1_455 S
Ti5    V1     10.012   1_665 S
Ti6    Er2     9.994   1_545 S
Ti7    Er3     9.994   1_455 S
Ti7    V1     10.012   1_556 S
Ti8    V1     10.012   1_666 S
Ti9    Er2     9.994   1_545 S
Ti9    V1     10.012   1_556 S
