data_ceu
_audit_creation_date              2019-09-09
_audit_creation_method            'Materials Studio'
_symmetry_space_group_name_H-M    'P1'
_symmetry_Int_Tables_number       1
_symmetry_cell_setting            triclinic
loop_
_symmetry_equiv_pos_as_xyz
  x,y,z
_cell_length_a                    25.8880
_cell_length_b                    25.8880
_cell_length_c                    46.8380
_cell_angle_alpha                 90.0000
_cell_angle_beta                  90.0000
_cell_angle_gamma                 120.0000
loop_
_atom_site_label
_atom_site_type_symbol
_atom_site_fract_x
_atom_site_fract_y
_atom_site_fract_z
_atom_site_U_iso_or_equiv
_atom_site_adp_type
_atom_site_occupancy
V1     V    -0.00000   0.67440   0.10410   0.00000  Uiso   1.00
V2     V     0.32560   0.32560   0.10410   0.00000  Uiso   1.00
V3     V     0.67440   0.00000   0.10410   0.00000  Uiso   1.00
V4     V     0.00000   0.32560   0.60410   0.00000  Uiso   1.00
V5     V     0.67440   0.67440   0.60410   0.00000  Uiso   1.00
V6     V     0.32560  -0.00000   0.60410   0.00000  Uiso   1.00
V7     V     0.67440  -0.00000   0.39590   0.00000  Uiso   1.00
V8     V     0.32560   0.32560   0.39590   0.00000  Uiso   1.00
V9     V     0.00000   0.67440   0.39590   0.00000  Uiso   1.00
V10    V     0.32560   0.00000   0.89590   0.00000  Uiso   1.00
V11    V     0.67440   0.67440   0.89590   0.00000  Uiso   1.00
V12    V    -0.00000   0.32560   0.89590   0.00000  Uiso   1.00
Er13   Er    0.33333   0.66667   0.00000   0.00000  Uiso   1.00
Er14   Er    0.66667   0.33333   0.50000   0.00000  Uiso   1.00
Er15   Er    0.66667   0.33333   0.00000   0.00000  Uiso   1.00
Er16   Er    0.33333   0.66667   0.50000   0.00000  Uiso   1.00
Ti17   Ti    0.00000   0.16280   0.25000   0.00000  Uiso   1.00
Ti18   Ti    0.83720   0.83720   0.25000   0.00000  Uiso   1.00
Ti19   Ti    0.16280  -0.00000   0.25000   0.00000  Uiso   1.00
Ti20   Ti    0.00000   0.83720   0.75000   0.00000  Uiso   1.00
Ti21   Ti    0.16280   0.16280   0.75000   0.00000  Uiso   1.00
Ti22   Ti    0.83720   0.00000   0.75000   0.00000  Uiso   1.00
loop_
_geom_bond_atom_site_label_1
_geom_bond_atom_site_label_2
_geom_bond_distance
_geom_bond_site_symmetry_2
_ccdc_geom_bond_type
V1     Er15   10.000   1_455 S
V1     Er13   10.000   .     S
V1     Ti18    9.999   1_455 S
V1     Ti19    9.999   1_565 S
V2     Er15   10.000   .     S
V2     Er13   10.000   .     S
V2     Ti19    9.999   .     S
V2     Ti17    9.999   .     S
V3     Er15   10.000   .     S
V3     Er13   10.000   1_545 S
V3     Ti17    9.999   1_655 S
V3     Ti18    9.999   1_545 S
V4     Er16   10.000   .     S
V4     Er14   10.000   1_455 S
V4     Ti21    9.999   .     S
V4     Ti22    9.999   1_455 S
V5     Er16   10.000   .     S
V5     Er14   10.000   .     S
V5     Ti22    9.999   1_565 S
V5     Ti20    9.999   1_655 S
V6     Er16   10.000   1_545 S
V6     Er14   10.000   .     S
V6     Ti20    9.999   1_545 S
V6     Ti21    9.999   .     S
V7     Er16   10.000   1_545 S
V7     Er14   10.000   .     S
V7     Ti18    9.999   1_545 S
V7     Ti17    9.999   1_655 S
V8     Er16   10.000   .     S
V8     Er14   10.000   .     S
V8     Ti17    9.999   .     S
V8     Ti19    9.999   .     S
V9     Er16   10.000   .     S
V9     Er14   10.000   1_455 S
V9     Ti19    9.999   1_565 S
V9     Ti18    9.999   1_455 S
V10    Er15   10.000   1_556 S
V10    Er13   10.000   1_546 S
V10    Ti21    9.999   .     S
V10    Ti20    9.999   1_545 S
V11    Er15   10.000   1_556 S
V11    Er13   10.000   1_556 S
V11    Ti20    9.999   1_655 S
V11    Ti22    9.999   1_565 S
V12    Er15   10.000   1_456 S
V12    Er13   10.000   1_556 S
V12    Ti22    9.999   1_455 S
V12    Ti21    9.999   .     S
Er13   V11    10.000   1_554 S
Er13   V10    10.000   1_564 S
Er13   V12    10.000   1_554 S
Er13   V3     10.000   1_565 S
Er14   V9     10.000   1_655 S
Er14   V4     10.000   1_655 S
Er15   V1     10.000   1_655 S
Er15   V11    10.000   1_554 S
Er15   V12    10.000   1_654 S
Er15   V10    10.000   1_554 S
Er16   V6     10.000   1_565 S
Er16   V7     10.000   1_565 S
Ti17   V3      9.999   1_455 S
Ti17   V7      9.999   1_455 S
Ti18   V7      9.999   1_565 S
Ti18   V1      9.999   1_655 S
Ti18   V3      9.999   1_565 S
Ti18   V9      9.999   1_655 S
Ti19   V9      9.999   1_545 S
Ti19   V1      9.999   1_545 S
Ti20   V11     9.999   1_455 S
Ti20   V6      9.999   1_565 S
Ti20   V5      9.999   1_455 S
Ti20   V10     9.999   1_565 S
Ti22   V12     9.999   1_655 S
Ti22   V5      9.999   1_545 S
Ti22   V4      9.999   1_655 S
Ti22   V11     9.999   1_545 S
