data_cew
_audit_creation_date              2019-09-09
_audit_creation_method            'Materials Studio'
_symmetry_space_group_name_H-M    'P1'
_symmetry_Int_Tables_number       1
_symmetry_cell_setting            triclinic
loop_
_symmetry_equiv_pos_as_xyz
  x,y,z
_cell_length_a                    34.9770
_cell_length_b                    34.9770
_cell_length_c                    23.9140
_cell_angle_alpha                 90.0000
_cell_angle_beta                  90.0000
_cell_angle_gamma                 120.0000
loop_
_atom_site_label
_atom_site_type_symbol
_atom_site_fract_x
_atom_site_fract_y
_atom_site_fract_z
_atom_site_U_iso_or_equiv
_atom_site_adp_type
_atom_site_occupancy
V1     V     0.21785   0.43570   0.31420   0.00000  Uiso   1.00
V2     V     0.56430   0.78215   0.31420   0.00000  Uiso   1.00
V3     V     0.21785   0.78215   0.31420   0.00000  Uiso   1.00
V4     V     0.78215   0.56430   0.31420   0.00000  Uiso   1.00
V5     V     0.43570   0.21785   0.31420   0.00000  Uiso   1.00
V6     V     0.78215   0.21785   0.31420   0.00000  Uiso   1.00
V7     V     0.43570   0.21785   0.68580   0.00000  Uiso   1.00
V8     V     0.78215   0.56430   0.68580   0.00000  Uiso   1.00
V9     V     0.78215   0.21785   0.68580   0.00000  Uiso   1.00
V10    V     0.56430   0.78215   0.68580   0.00000  Uiso   1.00
V11    V     0.21785   0.43570   0.68580   0.00000  Uiso   1.00
V12    V     0.21785   0.78215   0.68580   0.00000  Uiso   1.00
Er13   Er    0.50000   0.50000   0.50000   0.00000  Uiso   1.00
Er14   Er    0.50000   0.00000   0.50000   0.00000  Uiso   1.00
Er15   Er    0.00000   0.50000   0.50000   0.00000  Uiso   1.00
Ti16   Ti    0.00000   0.32800   0.00000   0.00000  Uiso   1.00
Ti17   Ti    0.67200   0.67200   0.00000   0.00000  Uiso   1.00
Ti18   Ti    0.32800   0.00000   0.00000   0.00000  Uiso   1.00
Ti19   Ti    0.00000   0.67200   0.00000   0.00000  Uiso   1.00
Ti20   Ti    0.32800   0.32800   0.00000   0.00000  Uiso   1.00
Ti21   Ti    0.67200  -0.00000   0.00000   0.00000  Uiso   1.00
loop_
_geom_bond_atom_site_label_1
_geom_bond_atom_site_label_2
_geom_bond_distance
_geom_bond_site_symmetry_2
_ccdc_geom_bond_type
V1     Er13   10.000   .     S
V1     Er15   10.000   .     S
V1     Ti16   10.000   .     S
V1     Ti20   10.000   .     S
V2     Er14   10.000   1_565 S
V2     Er13   10.000   .     S
V2     Ti17   10.000   .     S
V2     Ti21   10.000   1_565 S
V3     Er15   10.000   .     S
V3     Er14   10.000   1_565 S
V3     Ti18   10.000   1_565 S
V3     Ti19   10.000   .     S
V4     Er13   10.000   .     S
V4     Er15   10.000   1_655 S
V4     Ti19   10.000   1_655 S
V4     Ti17   10.000   .     S
V5     Er14   10.000   .     S
V5     Er13   10.000   .     S
V5     Ti20   10.000   .     S
V5     Ti18   10.000   .     S
V6     Er15   10.000   1_655 S
V6     Er14   10.000   .     S
V6     Ti21   10.000   .     S
V6     Ti16   10.000   1_655 S
V7     Er13   10.000   .     S
V7     Er14   10.000   .     S
V7     Ti18   10.000   1_556 S
V7     Ti20   10.000   1_556 S
V8     Er15   10.000   1_655 S
V8     Er13   10.000   .     S
V8     Ti17   10.000   1_556 S
V8     Ti19   10.000   1_656 S
V9     Er14   10.000   .     S
V9     Er15   10.000   1_655 S
V9     Ti16   10.000   1_656 S
V9     Ti21   10.000   1_556 S
V10    Er13   10.000   .     S
V10    Er14   10.000   1_565 S
V10    Ti21   10.000   1_566 S
V10    Ti17   10.000   1_556 S
V11    Er15   10.000   .     S
V11    Er13   10.000   .     S
V11    Ti20   10.000   1_556 S
V11    Ti16   10.000   1_556 S
V12    Er14   10.000   1_565 S
V12    Er15   10.000   .     S
V12    Ti19   10.000   1_556 S
V12    Ti18   10.000   1_566 S
Er14   V12    10.000   1_545 S
Er14   V2     10.000   1_545 S
Er14   V3     10.000   1_545 S
Er14   V10    10.000   1_545 S
Er15   V8     10.000   1_455 S
Er15   V6     10.000   1_455 S
Er15   V4     10.000   1_455 S
Er15   V9     10.000   1_455 S
Ti16   V9     10.000   1_454 S
Ti16   V6     10.000   1_455 S
Ti16   V11    10.000   1_554 S
Ti17   V8     10.000   1_554 S
Ti17   V10    10.000   1_554 S
Ti18   V7     10.000   1_554 S
Ti18   V3     10.000   1_545 S
Ti18   V12    10.000   1_544 S
Ti19   V12    10.000   1_554 S
Ti19   V4     10.000   1_455 S
Ti19   V8     10.000   1_454 S
Ti20   V11    10.000   1_554 S
Ti20   V7     10.000   1_554 S
Ti21   V10    10.000   1_544 S
Ti21   V2     10.000   1_545 S
Ti21   V9     10.000   1_554 S
