data_cez
_audit_creation_date              2019-09-09
_audit_creation_method            'Materials Studio'
_symmetry_space_group_name_H-M    'P1'
_symmetry_Int_Tables_number       1
_symmetry_cell_setting            triclinic
loop_
_symmetry_equiv_pos_as_xyz
  x,y,z
_cell_length_a                    29.0430
_cell_length_b                    29.0430
_cell_length_c                    25.5590
_cell_angle_alpha                 90.0000
_cell_angle_beta                  90.0000
_cell_angle_gamma                 120.0000
loop_
_atom_site_label
_atom_site_type_symbol
_atom_site_fract_x
_atom_site_fract_y
_atom_site_fract_z
_atom_site_U_iso_or_equiv
_atom_site_adp_type
_atom_site_occupancy
V1     V     0.00000   0.50000   0.00000   0.00000  Uiso   1.00
V2     V     0.50000   0.50000   0.00000   0.00000  Uiso   1.00
V3     V     0.50000   0.00000   0.00000   0.00000  Uiso   1.00
V4     V     0.50000   0.00000   0.50000   0.00000  Uiso   1.00
V5     V     0.50000   0.50000   0.50000   0.00000  Uiso   1.00
V6     V     0.00000   0.50000   0.50000   0.00000  Uiso   1.00
Er7    Er    0.00000   0.00000   0.25000   0.00000  Uiso   1.00
Er8    Er    0.00000   0.00000   0.75000   0.00000  Uiso   1.00
Ti9    Ti    0.19805   0.39610   0.25000   0.00000  Uiso   1.00
Ti10   Ti    0.60390   0.80195   0.25000   0.00000  Uiso   1.00
Ti11   Ti    0.19805   0.80195   0.25000   0.00000  Uiso   1.00
Ti12   Ti    0.80195   0.60390   0.25000   0.00000  Uiso   1.00
Ti13   Ti    0.39610   0.19805   0.25000   0.00000  Uiso   1.00
Ti14   Ti    0.80195   0.19805   0.25000   0.00000  Uiso   1.00
Ti15   Ti    0.80195   0.60390   0.75000   0.00000  Uiso   1.00
Ti16   Ti    0.39610   0.19805   0.75000   0.00000  Uiso   1.00
Ti17   Ti    0.80195   0.19805   0.75000   0.00000  Uiso   1.00
Ti18   Ti    0.19805   0.39610   0.75000   0.00000  Uiso   1.00
Ti19   Ti    0.60390   0.80195   0.75000   0.00000  Uiso   1.00
Ti20   Ti    0.19805   0.80195   0.75000   0.00000  Uiso   1.00
loop_
_geom_bond_atom_site_label_1
_geom_bond_atom_site_label_2
_geom_bond_distance
_geom_bond_site_symmetry_2
_ccdc_geom_bond_type
V1     Ti18   10.019   1_554 S
V1     Ti15   10.019   1_454 S
V1     Ti12   10.019   1_455 S
V1     Ti9    10.019   .     S
V2     Ti19   10.019   1_554 S
V2     Ti16   10.019   1_554 S
V2     Ti13   10.019   .     S
V2     Ti10   10.019   .     S
V3     Ti20   10.019   1_544 S
V3     Ti17   10.019   1_554 S
V3     Ti14   10.019   .     S
V3     Ti11   10.019   1_545 S
V4     Ti16   10.019   .     S
V4     Ti19   10.019   1_545 S
V4     Ti10   10.019   1_545 S
V4     Ti13   10.019   .     S
V5     Ti15   10.019   .     S
V5     Ti18   10.019   .     S
V5     Ti9    10.019   .     S
V5     Ti12   10.019   .     S
V6     Ti17   10.019   1_455 S
V6     Ti20   10.019   .     S
V6     Ti11   10.019   .     S
V6     Ti14   10.019   1_455 S
Er7    Ti12    9.963   1_445 S
Er7    Ti13    9.963   .     S
Er7    Ti14    9.963   1_455 S
Er7    Ti9     9.963   .     S
Er7    Ti10    9.963   1_445 S
Er7    Ti11    9.963   1_545 S
Er8    Ti18    9.963   .     S
Er8    Ti19    9.963   1_445 S
Er8    Ti20    9.963   1_545 S
Er8    Ti15    9.963   1_445 S
Er8    Ti16    9.963   .     S
Er8    Ti17    9.963   1_455 S
Ti10   Er7     9.963   1_665 S
Ti10   V4     10.019   1_565 S
Ti11   Er7     9.963   1_565 S
Ti11   V3     10.019   1_565 S
Ti12   Er7     9.963   1_665 S
Ti12   V1     10.019   1_655 S
Ti14   Er7     9.963   1_655 S
Ti14   V6     10.019   1_655 S
Ti15   Er8     9.963   1_665 S
Ti15   V1     10.019   1_656 S
Ti16   V2     10.019   1_556 S
Ti17   Er8     9.963   1_655 S
Ti17   V6     10.019   1_655 S
Ti17   V3     10.019   1_556 S
Ti18   V1     10.019   1_556 S
Ti19   Er8     9.963   1_665 S
Ti19   V4     10.019   1_565 S
Ti19   V2     10.019   1_556 S
Ti20   Er8     9.963   1_565 S
Ti20   V3     10.019   1_566 S
