data_CTN_3_4
_audit_creation_date              2018-09-26
_audit_creation_method            'Materials Studio'
_symmetry_space_group_name_H-M    'P1'
_symmetry_Int_Tables_number       1
_symmetry_cell_setting            triclinic
loop_
_symmetry_equiv_pos_as_xyz
  x,y,z
_cell_length_a                    37.0330
_cell_length_b                    37.0330
_cell_length_c                    37.0330
_cell_angle_alpha                 90.0000
_cell_angle_beta                  90.0000
_cell_angle_gamma                 90.0000
loop_
_atom_site_label
_atom_site_type_symbol
_atom_site_fract_x
_atom_site_fract_y
_atom_site_fract_z
_atom_site_U_iso_or_equiv
_atom_site_adp_type
_atom_site_occupancy
Er1    Er    0.20830   0.20830   0.20830   0.00000  Uiso   1.00
Er2    Er    0.70830   0.70830   0.70830   0.00000  Uiso   1.00
Er3    Er    0.29170   0.79170   0.70830   0.00000  Uiso   1.00
Er4    Er    0.79170   0.29170   0.20830   0.00000  Uiso   1.00
Er5    Er    0.79170   0.70830   0.29170   0.00000  Uiso   1.00
Er6    Er    0.29170   0.20830   0.79170   0.00000  Uiso   1.00
Er7    Er    0.70830   0.29170   0.79170   0.00000  Uiso   1.00
Er8    Er    0.20830   0.79170   0.29170   0.00000  Uiso   1.00
Er9    Er    0.45830   0.45830   0.45830   0.00000  Uiso   1.00
Er10   Er    0.95830   0.95830   0.95830   0.00000  Uiso   1.00
Er11   Er    0.04170   0.54170   0.95830   0.00000  Uiso   1.00
Er12   Er    0.54170   0.04170   0.45830   0.00000  Uiso   1.00
Er13   Er    0.95830   0.04170   0.54170   0.00000  Uiso   1.00
Er14   Er    0.45830   0.54170   0.04170   0.00000  Uiso   1.00
Er15   Er    0.54170   0.95830   0.04170   0.00000  Uiso   1.00
Er16   Er    0.04170   0.45830   0.54170   0.00000  Uiso   1.00
V17    V     0.37500   0.00000   0.25000   0.00000  Uiso   1.00
V18    V     0.12500   0.00000   0.75000   0.00000  Uiso   1.00
V19    V     0.62500   0.50000   0.25000   0.00000  Uiso   1.00
V20    V     0.87500   0.50000   0.75000   0.00000  Uiso   1.00
V21    V     0.25000   0.37500   0.00000   0.00000  Uiso   1.00
V22    V     0.75000   0.12500   0.00000   0.00000  Uiso   1.00
V23    V     0.25000   0.62500   0.50000   0.00000  Uiso   1.00
V24    V     0.75000   0.87500   0.50000   0.00000  Uiso   1.00
V25    V     0.00000   0.25000   0.37500   0.00000  Uiso   1.00
V26    V     0.00000   0.75000   0.12500   0.00000  Uiso   1.00
V27    V     0.50000   0.25000   0.62500   0.00000  Uiso   1.00
V28    V     0.50000   0.75000   0.87500   0.00000  Uiso   1.00
loop_
_geom_bond_atom_site_label_1
_geom_bond_atom_site_label_2
_geom_bond_distance
_geom_bond_site_symmetry_2
_ccdc_geom_bond_type
Er1    V25    10.000   .     S
Er1    V17    10.000   .     S
Er1    V21    10.000   .     S
Er2    V28    10.000   .     S
Er2    V20    10.000   .     S
Er2    V24    10.000   .     S
Er3    V28    10.000   .     S
Er3    V18    10.000   1_565 S
Er3    V23    10.000   .     S
Er4    V25    10.000   1_655 S
Er4    V19    10.000   .     S
Er4    V22    10.000   .     S
Er5    V26    10.000   1_655 S
Er5    V19    10.000   .     S
Er5    V24    10.000   .     S
Er6    V27    10.000   .     S
Er6    V18    10.000   .     S
Er6    V21    10.000   1_556 S
Er7    V27    10.000   .     S
Er7    V20    10.000   .     S
Er7    V22    10.000   1_556 S
Er8    V26    10.000   .     S
Er8    V17    10.000   1_565 S
Er8    V23    10.000   .     S
Er9    V27    10.000   .     S
Er9    V23    10.000   .     S
Er9    V19    10.000   .     S
Er10   V26    10.000   1_656 S
Er10   V22    10.000   1_566 S
Er10   V18    10.000   1_665 S
Er11   V26    10.000   1_556 S
Er11   V21    10.000   1_556 S
Er11   V20    10.000   1_455 S
Er12   V27    10.000   .     S
Er12   V24    10.000   1_545 S
Er12   V17    10.000   .     S
Er13   V25    10.000   1_655 S
Er13   V24    10.000   1_545 S
Er13   V18    10.000   1_655 S
Er14   V28    10.000   1_554 S
Er14   V21    10.000   .     S
Er14   V19    10.000   .     S
Er15   V28    10.000   1_554 S
Er15   V22    10.000   1_565 S
Er15   V17    10.000   1_565 S
Er16   V25    10.000   .     S
Er16   V23    10.000   .     S
Er16   V20    10.000   1_455 S
V17    Er15   10.000   1_545 S
V17    Er8    10.000   1_545 S
V18    Er3    10.000   1_545 S
V18    Er13   10.000   1_455 S
V18    Er10   10.000   1_445 S
V20    Er11   10.000   1_655 S
V20    Er16   10.000   1_655 S
V21    Er11   10.000   1_554 S
V21    Er6    10.000   1_554 S
V22    Er7    10.000   1_554 S
V22    Er15   10.000   1_545 S
V22    Er10   10.000   1_544 S
V24    Er13   10.000   1_565 S
V24    Er12   10.000   1_565 S
V25    Er13   10.000   1_455 S
V25    Er4    10.000   1_455 S
V26    Er5    10.000   1_455 S
V26    Er11   10.000   1_554 S
V26    Er10   10.000   1_454 S
V28    Er15   10.000   1_556 S
V28    Er14   10.000   1_556 S
