data_dia
_audit_creation_date              2018-01-08
_audit_creation_method            'Materials Studio'
_symmetry_space_group_name_H-M    'P1'
_symmetry_Int_Tables_number       1
_symmetry_cell_setting            triclinic
loop_
_symmetry_equiv_pos_as_xyz
  x,y,z
_cell_length_a                    10.0000
_cell_length_b                    10.0000
_cell_length_c                    10.0000
_cell_angle_alpha                 90.0000
_cell_angle_beta                  90.0000
_cell_angle_gamma                 90.0000
loop_
_atom_site_label
_atom_site_type_symbol
_atom_site_fract_x
_atom_site_fract_y
_atom_site_fract_z
_atom_site_U_iso_or_equiv
_atom_site_adp_type
_atom_site_occupancy
V1     V     0.00000   0.00000   0.00000   0.00000  Uiso   1.00
V2     V     0.00000   0.50000   0.50000   0.00000  Uiso   1.00
V3     V     0.50000   0.00000   0.50000   0.00000  Uiso   1.00
V4     V     0.50000   0.50000   0.00000   0.00000  Uiso   1.00
V5     V     0.75000   0.25000   0.75000   0.00000  Uiso   1.00
V6     V     0.25000   0.25000   0.25000   0.00000  Uiso   1.00
V7     V     0.25000   0.75000   0.75000   0.00000  Uiso   1.00
V8     V     0.75000   0.75000   0.25000   0.00000  Uiso   1.00
loop_
_geom_bond_atom_site_label_1
_geom_bond_atom_site_label_2
_geom_bond_distance
_geom_bond_site_symmetry_2
_ccdc_geom_bond_type
V1     V6      4.330   .     S
V1     V8      4.330   1_445 S
V1     V5      4.330   1_454 S
V1     V7      4.330   1_544 S
V2     V5      4.330   1_455 S
V2     V7      4.330   .     S
V2     V6      4.330   .     S
V2     V8      4.330   1_455 S
V3     V8      4.330   1_545 S
V3     V6      4.330   .     S
V3     V7      4.330   1_545 S
V3     V5      4.330   .     S
V4     V7      4.330   1_554 S
V4     V5      4.330   1_554 S
V4     V8      4.330   .     S
V4     V6      4.330   .     S
V5     V2      4.330   1_655 S
V5     V1      4.330   1_656 S
V5     V4      4.330   1_556 S
V7     V4      4.330   1_556 S
V7     V1      4.330   1_566 S
V7     V3      4.330   1_565 S
V8     V3      4.330   1_565 S
V8     V2      4.330   1_655 S
V8     V1      4.330   1_665 S
