data_dnx
_audit_creation_date              2019-09-09
_audit_creation_method            'Materials Studio'
_symmetry_space_group_name_H-M    'P1'
_symmetry_Int_Tables_number       1
_symmetry_cell_setting            triclinic
loop_
_symmetry_equiv_pos_as_xyz
  x,y,z
_cell_length_a                    44.3610
_cell_length_b                    44.3610
_cell_length_c                    44.3610
_cell_angle_alpha                 90.0000
_cell_angle_beta                  90.0000
_cell_angle_gamma                 90.0000
loop_
_atom_site_label
_atom_site_type_symbol
_atom_site_fract_x
_atom_site_fract_y
_atom_site_fract_z
_atom_site_U_iso_or_equiv
_atom_site_adp_type
_atom_site_occupancy
V1     V     0.00000   0.27610   0.27610   0.00000  Uiso   1.00
V2     V     0.50000   0.77610   0.77610   0.00000  Uiso   1.00
V3     V     0.00000   0.72390   0.27610   0.00000  Uiso   1.00
V4     V     0.50000   0.22390   0.77610   0.00000  Uiso   1.00
V5     V     0.00000   0.27610   0.72390   0.00000  Uiso   1.00
V6     V     0.50000   0.77610   0.22390   0.00000  Uiso   1.00
V7     V     0.00000   0.72390   0.72390   0.00000  Uiso   1.00
V8     V     0.50000   0.22390   0.22390   0.00000  Uiso   1.00
V9     V     0.27610   0.00000   0.27610   0.00000  Uiso   1.00
V10    V     0.77610   0.50000   0.77610   0.00000  Uiso   1.00
V11    V     0.27610   0.00000   0.72390   0.00000  Uiso   1.00
V12    V     0.77610   0.50000   0.22390   0.00000  Uiso   1.00
V13    V     0.72390   0.00000   0.27610   0.00000  Uiso   1.00
V14    V     0.22390   0.50000   0.77610   0.00000  Uiso   1.00
V15    V     0.72390   0.00000   0.72390   0.00000  Uiso   1.00
V16    V     0.22390   0.50000   0.22390   0.00000  Uiso   1.00
V17    V     0.27610   0.27610   0.00000   0.00000  Uiso   1.00
V18    V     0.77610   0.77610   0.50000   0.00000  Uiso   1.00
V19    V     0.72390   0.27610   0.00000   0.00000  Uiso   1.00
V20    V     0.22390   0.77610   0.50000   0.00000  Uiso   1.00
V21    V     0.27610   0.72390   0.00000   0.00000  Uiso   1.00
V22    V     0.77610   0.22390   0.50000   0.00000  Uiso   1.00
V23    V     0.72390   0.72390   0.00000   0.00000  Uiso   1.00
V24    V     0.22390   0.22390   0.50000   0.00000  Uiso   1.00
Er25   Er    0.00000   0.25000   0.50000   0.00000  Uiso   1.00
Er26   Er    0.00000   0.75000   0.50000   0.00000  Uiso   1.00
Er27   Er    0.50000   0.25000   0.00000   0.00000  Uiso   1.00
Er28   Er    0.50000   0.00000   0.25000   0.00000  Uiso   1.00
Er29   Er    0.50000   0.00000   0.75000   0.00000  Uiso   1.00
Er30   Er    0.00000   0.50000   0.25000   0.00000  Uiso   1.00
Er31   Er    0.25000   0.50000   0.00000   0.00000  Uiso   1.00
Er32   Er    0.75000   0.50000   0.00000   0.00000  Uiso   1.00
Er33   Er    0.25000   0.00000   0.50000   0.00000  Uiso   1.00
Er34   Er    0.75000   0.00000   0.50000   0.00000  Uiso   1.00
Er35   Er    0.00000   0.50000   0.75000   0.00000  Uiso   1.00
Er36   Er    0.50000   0.75000   0.00000   0.00000  Uiso   1.00
Ti37   Ti    0.18410   0.18410   0.18410   0.00000  Uiso   1.00
Ti38   Ti    0.68410   0.68410   0.68410   0.00000  Uiso   1.00
Ti39   Ti    0.81590   0.81590   0.18410   0.00000  Uiso   1.00
Ti40   Ti    0.31590   0.31590   0.68410   0.00000  Uiso   1.00
Ti41   Ti    0.81590   0.18410   0.81590   0.00000  Uiso   1.00
Ti42   Ti    0.31590   0.68410   0.31590   0.00000  Uiso   1.00
Ti43   Ti    0.18410   0.81590   0.81590   0.00000  Uiso   1.00
Ti44   Ti    0.68410   0.31590   0.31590   0.00000  Uiso   1.00
Ti45   Ti    0.18410   0.18410   0.81590   0.00000  Uiso   1.00
Ti46   Ti    0.68410   0.68410   0.31590   0.00000  Uiso   1.00
Ti47   Ti    0.81590   0.81590   0.81590   0.00000  Uiso   1.00
Ti48   Ti    0.31590   0.31590   0.31590   0.00000  Uiso   1.00
Ti49   Ti    0.18410   0.81590   0.18410   0.00000  Uiso   1.00
Ti50   Ti    0.68410   0.31590   0.68410   0.00000  Uiso   1.00
Ti51   Ti    0.81590   0.18410   0.18410   0.00000  Uiso   1.00
Ti52   Ti    0.31590   0.68410   0.68410   0.00000  Uiso   1.00
loop_
_geom_bond_atom_site_label_1
_geom_bond_atom_site_label_2
_geom_bond_distance
_geom_bond_site_symmetry_2
_ccdc_geom_bond_type
V1     Er30   10.000   .     S
V1     Er25   10.000   .     S
V1     Ti51   10.001   1_455 S
V1     Ti37   10.001   .     S
V2     Er29   10.000   1_565 S
V2     Er36   10.000   1_556 S
V2     Ti52   10.001   .     S
V2     Ti38   10.001   .     S
V3     Er30   10.000   .     S
V3     Er26   10.000   .     S
V3     Ti49   10.001   .     S
V3     Ti39   10.001   1_455 S
V4     Er29   10.000   .     S
V4     Er27   10.000   1_556 S
V4     Ti50   10.001   .     S
V4     Ti40   10.001   .     S
V5     Er35   10.000   .     S
V5     Er25   10.000   .     S
V5     Ti45   10.001   .     S
V5     Ti41   10.001   1_455 S
V6     Er28   10.000   1_565 S
V6     Er36   10.000   .     S
V6     Ti46   10.001   .     S
V6     Ti42   10.001   .     S
V7     Er35   10.000   .     S
V7     Er26   10.000   .     S
V7     Ti47   10.001   1_455 S
V7     Ti43   10.001   .     S
V8     Er28   10.000   .     S
V8     Er27   10.000   .     S
V8     Ti48   10.001   .     S
V8     Ti44   10.001   .     S
V9     Er33   10.000   .     S
V9     Er28   10.000   .     S
V9     Ti49   10.001   1_545 S
V9     Ti37   10.001   .     S
V10    Er32   10.000   1_556 S
V10    Er35   10.000   1_655 S
V10    Ti50   10.001   .     S
V10    Ti38   10.001   .     S
V11    Er33   10.000   .     S
V11    Er29   10.000   .     S
V11    Ti45   10.001   .     S
V11    Ti43   10.001   1_545 S
V12    Er32   10.000   .     S
V12    Er30   10.000   1_655 S
V12    Ti46   10.001   .     S
V12    Ti44   10.001   .     S
V13    Er34   10.000   .     S
V13    Er28   10.000   .     S
V13    Ti51   10.001   .     S
V13    Ti39   10.001   1_545 S
V14    Er31   10.000   1_556 S
V14    Er35   10.000   .     S
V14    Ti52   10.001   .     S
V14    Ti40   10.001   .     S
V15    Er34   10.000   .     S
V15    Er29   10.000   .     S
V15    Ti47   10.001   1_545 S
V15    Ti41   10.001   .     S
V16    Er31   10.000   .     S
V16    Er30   10.000   .     S
V16    Ti48   10.001   .     S
V16    Ti42   10.001   .     S
V17    Er27   10.000   .     S
V17    Er31   10.000   .     S
V17    Ti45   10.001   1_554 S
V17    Ti37   10.001   .     S
V18    Er26   10.000   1_655 S
V18    Er34   10.000   1_565 S
V18    Ti46   10.001   .     S
V18    Ti38   10.001   .     S
V19    Er27   10.000   .     S
V19    Er32   10.000   .     S
V19    Ti51   10.001   .     S
V19    Ti41   10.001   1_554 S
V20    Er26   10.000   .     S
V20    Er33   10.000   1_565 S
V20    Ti52   10.001   .     S
V20    Ti42   10.001   .     S
V21    Er36   10.000   .     S
V21    Er31   10.000   .     S
V21    Ti49   10.001   .     S
V21    Ti43   10.001   1_554 S
V22    Er25   10.000   1_655 S
V22    Er34   10.000   .     S
V22    Ti50   10.001   .     S
V22    Ti44   10.001   .     S
V23    Er36   10.000   .     S
V23    Er32   10.000   .     S
V23    Ti47   10.001   1_554 S
V23    Ti39   10.001   .     S
V24    Er25   10.000   .     S
V24    Er33   10.000   .     S
V24    Ti48   10.001   .     S
V24    Ti40   10.001   .     S
Er25   V22    10.000   1_455 S
Er26   V18    10.000   1_455 S
Er27   V4     10.000   1_554 S
Er28   V6     10.000   1_545 S
Er29   V2     10.000   1_545 S
Er30   V12    10.000   1_455 S
Er31   V14    10.000   1_554 S
Er32   V10    10.000   1_554 S
Er33   V20    10.000   1_545 S
Er34   V18    10.000   1_545 S
Er35   V10    10.000   1_455 S
Er36   V2     10.000   1_554 S
Ti39   V3     10.001   1_655 S
Ti39   V13    10.001   1_565 S
Ti41   V19    10.001   1_556 S
Ti41   V5     10.001   1_655 S
Ti43   V21    10.001   1_556 S
Ti43   V11    10.001   1_565 S
Ti45   V17    10.001   1_556 S
Ti47   V23    10.001   1_556 S
Ti47   V15    10.001   1_565 S
Ti47   V7     10.001   1_655 S
Ti49   V9     10.001   1_565 S
Ti51   V1     10.001   1_655 S
