data_epn
_audit_creation_date              2019-09-09
_audit_creation_method            'Materials Studio'
_symmetry_space_group_name_H-M    'P1'
_symmetry_Int_Tables_number       1
_symmetry_cell_setting            triclinic
loop_
_symmetry_equiv_pos_as_xyz
  x,y,z
_cell_length_a                    52.7850
_cell_length_b                    52.7850
_cell_length_c                    52.7850
_cell_angle_alpha                 90.0000
_cell_angle_beta                  90.0000
_cell_angle_gamma                 90.0000
loop_
_atom_site_label
_atom_site_type_symbol
_atom_site_fract_x
_atom_site_fract_y
_atom_site_fract_z
_atom_site_U_iso_or_equiv
_atom_site_adp_type
_atom_site_occupancy
V1     V     0.21140   0.21140   0.21140   0.00000  Uiso   1.00
V2     V     0.78860   0.78860   0.21140   0.00000  Uiso   1.00
V3     V     0.78860   0.21140   0.78860   0.00000  Uiso   1.00
V4     V     0.21140   0.78860   0.78860   0.00000  Uiso   1.00
V5     V     0.21140   0.21140   0.78860   0.00000  Uiso   1.00
V6     V     0.78860   0.78860   0.78860   0.00000  Uiso   1.00
V7     V     0.21140   0.78860   0.21140   0.00000  Uiso   1.00
V8     V     0.78860   0.21140   0.21140   0.00000  Uiso   1.00
Er9    Er    0.00000   0.13400   0.50000   0.00000  Uiso   1.00
Er10   Er    0.00000   0.86600   0.50000   0.00000  Uiso   1.00
Er11   Er    0.50000   0.00000   0.13400   0.00000  Uiso   1.00
Er12   Er    0.50000   0.00000   0.86600   0.00000  Uiso   1.00
Er13   Er    0.13400   0.50000   0.00000   0.00000  Uiso   1.00
Er14   Er    0.86600   0.50000   0.00000   0.00000  Uiso   1.00
Er15   Er    0.13400   0.00000   0.50000   0.00000  Uiso   1.00
Er16   Er    0.86600   0.00000   0.50000   0.00000  Uiso   1.00
Er17   Er    0.00000   0.50000   0.86600   0.00000  Uiso   1.00
Er18   Er    0.00000   0.50000   0.13400   0.00000  Uiso   1.00
Er19   Er    0.50000   0.13400   0.00000   0.00000  Uiso   1.00
Er20   Er    0.50000   0.86600   0.00000   0.00000  Uiso   1.00
Ti21   Ti    0.13390   0.13390   0.36610   0.00000  Uiso   1.00
Ti22   Ti    0.86610   0.86610   0.36610   0.00000  Uiso   1.00
Ti23   Ti    0.86610   0.13390   0.63390   0.00000  Uiso   1.00
Ti24   Ti    0.13390   0.86610   0.63390   0.00000  Uiso   1.00
Ti25   Ti    0.36610   0.13390   0.13390   0.00000  Uiso   1.00
Ti26   Ti    0.36610   0.86610   0.86610   0.00000  Uiso   1.00
Ti27   Ti    0.63390   0.86610   0.13390   0.00000  Uiso   1.00
Ti28   Ti    0.63390   0.13390   0.86610   0.00000  Uiso   1.00
Ti29   Ti    0.13390   0.36610   0.13390   0.00000  Uiso   1.00
Ti30   Ti    0.86610   0.36610   0.86610   0.00000  Uiso   1.00
Ti31   Ti    0.13390   0.63390   0.86610   0.00000  Uiso   1.00
Ti32   Ti    0.86610   0.63390   0.13390   0.00000  Uiso   1.00
Ti33   Ti    0.13390   0.13390   0.63390   0.00000  Uiso   1.00
Ti34   Ti    0.86610   0.86610   0.63390   0.00000  Uiso   1.00
Ti35   Ti    0.13390   0.86610   0.36610   0.00000  Uiso   1.00
Ti36   Ti    0.86610   0.13390   0.36610   0.00000  Uiso   1.00
Ti37   Ti    0.13390   0.36610   0.86610   0.00000  Uiso   1.00
Ti38   Ti    0.86610   0.36610   0.13390   0.00000  Uiso   1.00
Ti39   Ti    0.86610   0.63390   0.86610   0.00000  Uiso   1.00
Ti40   Ti    0.13390   0.63390   0.13390   0.00000  Uiso   1.00
Ti41   Ti    0.36610   0.13390   0.86610   0.00000  Uiso   1.00
Ti42   Ti    0.36610   0.86610   0.13390   0.00000  Uiso   1.00
Ti43   Ti    0.63390   0.13390   0.13390   0.00000  Uiso   1.00
Ti44   Ti    0.63390   0.86610   0.86610   0.00000  Uiso   1.00
loop_
_geom_bond_atom_site_label_1
_geom_bond_atom_site_label_2
_geom_bond_distance
_geom_bond_site_symmetry_2
_ccdc_geom_bond_type
V1     Ti29   10.008   .     S
V1     Ti21   10.008   .     S
V1     Ti25   10.008   .     S
V2     Ti32   10.008   .     S
V2     Ti22   10.008   .     S
V2     Ti27   10.008   .     S
V3     Ti30   10.008   .     S
V3     Ti23   10.008   .     S
V3     Ti28   10.008   .     S
V4     Ti31   10.008   .     S
V4     Ti24   10.008   .     S
V4     Ti26   10.008   .     S
V5     Ti41   10.008   .     S
V5     Ti33   10.008   .     S
V5     Ti37   10.008   .     S
V6     Ti44   10.008   .     S
V6     Ti34   10.008   .     S
V6     Ti39   10.008   .     S
V7     Ti42   10.008   .     S
V7     Ti35   10.008   .     S
V7     Ti40   10.008   .     S
V8     Ti43   10.008   .     S
V8     Ti36   10.008   .     S
V8     Ti38   10.008   .     S
Er9    Ti33    9.996   .     S
Er9    Ti36    9.996   1_455 S
Er9    Ti21    9.996   .     S
Er9    Ti23    9.996   1_455 S
Er10   Ti34    9.996   1_455 S
Er10   Ti35    9.996   .     S
Er10   Ti22    9.996   1_455 S
Er10   Ti24    9.996   .     S
Er11   Ti43    9.996   .     S
Er11   Ti42    9.996   1_545 S
Er11   Ti25    9.996   .     S
Er11   Ti27    9.996   1_545 S
Er12   Ti44    9.996   1_545 S
Er12   Ti41    9.996   .     S
Er12   Ti26    9.996   1_545 S
Er12   Ti28    9.996   .     S
Er13   Ti40    9.996   .     S
Er13   Ti37    9.996   1_554 S
Er13   Ti29    9.996   .     S
Er13   Ti31    9.996   1_554 S
Er14   Ti39    9.996   1_554 S
Er14   Ti38    9.996   .     S
Er14   Ti30    9.996   1_554 S
Er14   Ti32    9.996   .     S
Er15   Ti21    9.996   .     S
Er15   Ti24    9.996   1_545 S
Er15   Ti33    9.996   .     S
Er15   Ti35    9.996   1_545 S
Er16   Ti22    9.996   1_545 S
Er16   Ti23    9.996   .     S
Er16   Ti34    9.996   1_545 S
Er16   Ti36    9.996   .     S
Er17   Ti31    9.996   .     S
Er17   Ti30    9.996   1_455 S
Er17   Ti37    9.996   .     S
Er17   Ti39    9.996   1_455 S
Er18   Ti32    9.996   1_455 S
Er18   Ti29    9.996   .     S
Er18   Ti38    9.996   1_455 S
Er18   Ti40    9.996   .     S
Er19   Ti28    9.996   1_554 S
Er19   Ti25    9.996   .     S
Er19   Ti41    9.996   1_554 S
Er19   Ti43    9.996   .     S
Er20   Ti27    9.996   .     S
Er20   Ti26    9.996   1_554 S
Er20   Ti42    9.996   .     S
Er20   Ti44    9.996   1_554 S
Ti22   Er16    9.996   1_565 S
Ti22   Er10    9.996   1_655 S
Ti23   Er9     9.996   1_655 S
Ti24   Er15    9.996   1_565 S
Ti26   Er20    9.996   1_556 S
Ti26   Er12    9.996   1_565 S
Ti27   Er11    9.996   1_565 S
Ti28   Er19    9.996   1_556 S
Ti30   Er17    9.996   1_655 S
Ti30   Er14    9.996   1_556 S
Ti31   Er13    9.996   1_556 S
Ti32   Er18    9.996   1_655 S
Ti34   Er10    9.996   1_655 S
Ti34   Er16    9.996   1_565 S
Ti35   Er15    9.996   1_565 S
Ti36   Er9     9.996   1_655 S
Ti37   Er13    9.996   1_556 S
Ti38   Er18    9.996   1_655 S
Ti39   Er14    9.996   1_556 S
Ti39   Er17    9.996   1_655 S
Ti41   Er19    9.996   1_556 S
Ti42   Er11    9.996   1_565 S
Ti44   Er12    9.996   1_565 S
Ti44   Er20    9.996   1_556 S
