data_epp
_audit_creation_date              2019-09-09
_audit_creation_method            'Materials Studio'
_symmetry_space_group_name_H-M    'P1'
_symmetry_Int_Tables_number       1
_symmetry_cell_setting            triclinic
loop_
_symmetry_equiv_pos_as_xyz
  x,y,z
_cell_length_a                    62.9270
_cell_length_b                    62.9270
_cell_length_c                    62.9270
_cell_angle_alpha                 90.0000
_cell_angle_beta                  90.0000
_cell_angle_gamma                 90.0000
loop_
_atom_site_label
_atom_site_type_symbol
_atom_site_fract_x
_atom_site_fract_y
_atom_site_fract_z
_atom_site_U_iso_or_equiv
_atom_site_adp_type
_atom_site_occupancy
V1     V     0.00000   0.30610   0.30610   0.00000  Uiso   1.00
V2     V     0.50000   0.80610   0.80610   0.00000  Uiso   1.00
V3     V     0.00000   0.69390   0.30610   0.00000  Uiso   1.00
V4     V     0.50000   0.19390   0.80610   0.00000  Uiso   1.00
V5     V     0.00000   0.30610   0.69390   0.00000  Uiso   1.00
V6     V     0.50000   0.80610   0.19390   0.00000  Uiso   1.00
V7     V     0.00000   0.69390   0.69390   0.00000  Uiso   1.00
V8     V     0.50000   0.19390   0.19390   0.00000  Uiso   1.00
V9     V     0.30610   0.00000   0.30610   0.00000  Uiso   1.00
V10    V     0.80610   0.50000   0.80610   0.00000  Uiso   1.00
V11    V     0.30610   0.00000   0.69390   0.00000  Uiso   1.00
V12    V     0.80610   0.50000   0.19390   0.00000  Uiso   1.00
V13    V     0.69390   0.00000   0.30610   0.00000  Uiso   1.00
V14    V     0.19390   0.50000   0.80610   0.00000  Uiso   1.00
V15    V     0.69390   0.00000   0.69390   0.00000  Uiso   1.00
V16    V     0.19390   0.50000   0.19390   0.00000  Uiso   1.00
V17    V     0.30610   0.30610   0.00000   0.00000  Uiso   1.00
V18    V     0.80610   0.80610   0.50000   0.00000  Uiso   1.00
V19    V     0.69390   0.30610   0.00000   0.00000  Uiso   1.00
V20    V     0.19390   0.80610   0.50000   0.00000  Uiso   1.00
V21    V     0.30610   0.69390   0.00000   0.00000  Uiso   1.00
V22    V     0.80610   0.19390   0.50000   0.00000  Uiso   1.00
V23    V     0.69390   0.69390   0.00000   0.00000  Uiso   1.00
V24    V     0.19390   0.19390   0.50000   0.00000  Uiso   1.00
Er25   Er    0.13770   0.25000   0.36230   0.00000  Uiso   1.00
Er26   Er    0.86230   0.75000   0.36230   0.00000  Uiso   1.00
Er27   Er    0.86230   0.25000   0.63770   0.00000  Uiso   1.00
Er28   Er    0.13770   0.75000   0.63770   0.00000  Uiso   1.00
Er29   Er    0.36230   0.13770   0.25000   0.00000  Uiso   1.00
Er30   Er    0.36230   0.86230   0.75000   0.00000  Uiso   1.00
Er31   Er    0.63770   0.86230   0.25000   0.00000  Uiso   1.00
Er32   Er    0.63770   0.13770   0.75000   0.00000  Uiso   1.00
Er33   Er    0.25000   0.36230   0.13770   0.00000  Uiso   1.00
Er34   Er    0.75000   0.36230   0.86230   0.00000  Uiso   1.00
Er35   Er    0.25000   0.63770   0.86230   0.00000  Uiso   1.00
Er36   Er    0.75000   0.63770   0.13770   0.00000  Uiso   1.00
Er37   Er    0.25000   0.13770   0.63770   0.00000  Uiso   1.00
Er38   Er    0.75000   0.86230   0.63770   0.00000  Uiso   1.00
Er39   Er    0.25000   0.86230   0.36230   0.00000  Uiso   1.00
Er40   Er    0.75000   0.13770   0.36230   0.00000  Uiso   1.00
Er41   Er    0.13770   0.36230   0.75000   0.00000  Uiso   1.00
Er42   Er    0.86230   0.36230   0.25000   0.00000  Uiso   1.00
Er43   Er    0.86230   0.63770   0.75000   0.00000  Uiso   1.00
Er44   Er    0.13770   0.63770   0.25000   0.00000  Uiso   1.00
Er45   Er    0.36230   0.25000   0.86230   0.00000  Uiso   1.00
Er46   Er    0.36230   0.75000   0.13770   0.00000  Uiso   1.00
Er47   Er    0.63770   0.25000   0.13770   0.00000  Uiso   1.00
Er48   Er    0.63770   0.75000   0.86230   0.00000  Uiso   1.00
Er49   Er    0.86230   0.75000   0.63770   0.00000  Uiso   1.00
Er50   Er    0.36230   0.25000   0.13770   0.00000  Uiso   1.00
Er51   Er    0.13770   0.25000   0.63770   0.00000  Uiso   1.00
Er52   Er    0.13770   0.75000   0.36230   0.00000  Uiso   1.00
Er53   Er    0.86230   0.25000   0.36230   0.00000  Uiso   1.00
Er54   Er    0.63770   0.86230   0.75000   0.00000  Uiso   1.00
Er55   Er    0.13770   0.36230   0.25000   0.00000  Uiso   1.00
Er56   Er    0.63770   0.13770   0.25000   0.00000  Uiso   1.00
Er57   Er    0.36230   0.13770   0.75000   0.00000  Uiso   1.00
Er58   Er    0.36230   0.86230   0.25000   0.00000  Uiso   1.00
Er59   Er    0.75000   0.63770   0.86230   0.00000  Uiso   1.00
Er60   Er    0.25000   0.13770   0.36230   0.00000  Uiso   1.00
Er61   Er    0.25000   0.63770   0.13770   0.00000  Uiso   1.00
Er62   Er    0.75000   0.36230   0.13770   0.00000  Uiso   1.00
Er63   Er    0.25000   0.36230   0.86230   0.00000  Uiso   1.00
Er64   Er    0.75000   0.86230   0.36230   0.00000  Uiso   1.00
Er65   Er    0.75000   0.13770   0.63770   0.00000  Uiso   1.00
Er66   Er    0.25000   0.86230   0.63770   0.00000  Uiso   1.00
Er67   Er    0.86230   0.63770   0.25000   0.00000  Uiso   1.00
Er68   Er    0.13770   0.63770   0.75000   0.00000  Uiso   1.00
Er69   Er    0.86230   0.36230   0.75000   0.00000  Uiso   1.00
Er70   Er    0.63770   0.75000   0.13770   0.00000  Uiso   1.00
Er71   Er    0.63770   0.25000   0.86230   0.00000  Uiso   1.00
Er72   Er    0.36230   0.75000   0.86230   0.00000  Uiso   1.00
Ti73   Ti    0.25000   0.25000   0.25000   0.00000  Uiso   1.00
Ti74   Ti    0.75000   0.75000   0.25000   0.00000  Uiso   1.00
Ti75   Ti    0.75000   0.25000   0.75000   0.00000  Uiso   1.00
Ti76   Ti    0.25000   0.75000   0.75000   0.00000  Uiso   1.00
Ti77   Ti    0.25000   0.25000   0.75000   0.00000  Uiso   1.00
Ti78   Ti    0.75000   0.75000   0.75000   0.00000  Uiso   1.00
Ti79   Ti    0.25000   0.75000   0.25000   0.00000  Uiso   1.00
Ti80   Ti    0.75000   0.25000   0.25000   0.00000  Uiso   1.00
loop_
_geom_bond_atom_site_label_1
_geom_bond_atom_site_label_2
_geom_bond_distance
_geom_bond_site_symmetry_2
_ccdc_geom_bond_type
V1     Er25   10.003   .     S
V1     Er42   10.003   1_455 S
V1     Er53   10.003   1_455 S
V1     Er55   10.003   .     S
V2     Er48   10.003   .     S
V2     Er30   10.003   .     S
V2     Er72   10.003   .     S
V2     Er54   10.003   .     S
V3     Er26   10.003   1_455 S
V3     Er44   10.003   .     S
V3     Er52   10.003   .     S
V3     Er67   10.003   1_455 S
V4     Er45   10.003   .     S
V4     Er32   10.003   .     S
V4     Er71   10.003   .     S
V4     Er57   10.003   .     S
V5     Er27   10.003   1_455 S
V5     Er41   10.003   .     S
V5     Er51   10.003   .     S
V5     Er69   10.003   1_455 S
V6     Er46   10.003   .     S
V6     Er31   10.003   .     S
V6     Er70   10.003   .     S
V6     Er58   10.003   .     S
V7     Er28   10.003   .     S
V7     Er43   10.003   1_455 S
V7     Er49   10.003   1_455 S
V7     Er68   10.003   .     S
V8     Er47   10.003   .     S
V8     Er29   10.003   .     S
V8     Er50   10.003   .     S
V8     Er56   10.003   .     S
V9     Er29   10.003   .     S
V9     Er39   10.003   1_545 S
V9     Er58   10.003   1_545 S
V9     Er60   10.003   .     S
V10    Er43   10.003   .     S
V10    Er34   10.003   .     S
V10    Er69   10.003   .     S
V10    Er59   10.003   .     S
V11    Er30   10.003   1_545 S
V11    Er37   10.003   .     S
V11    Er57   10.003   .     S
V11    Er66   10.003   1_545 S
V12    Er42   10.003   .     S
V12    Er36   10.003   .     S
V12    Er67   10.003   .     S
V12    Er62   10.003   .     S
V13    Er31   10.003   1_545 S
V13    Er40   10.003   .     S
V13    Er56   10.003   .     S
V13    Er64   10.003   1_545 S
V14    Er41   10.003   .     S
V14    Er35   10.003   .     S
V14    Er68   10.003   .     S
V14    Er63   10.003   .     S
V15    Er32   10.003   .     S
V15    Er38   10.003   1_545 S
V15    Er54   10.003   1_545 S
V15    Er65   10.003   .     S
V16    Er44   10.003   .     S
V16    Er33   10.003   .     S
V16    Er55   10.003   .     S
V16    Er61   10.003   .     S
V17    Er33   10.003   .     S
V17    Er45   10.003   1_554 S
V17    Er63   10.003   1_554 S
V17    Er50   10.003   .     S
V18    Er38   10.003   .     S
V18    Er26   10.003   .     S
V18    Er64   10.003   .     S
V18    Er49   10.003   .     S
V19    Er34   10.003   1_554 S
V19    Er47   10.003   .     S
V19    Er62   10.003   .     S
V19    Er71   10.003   1_554 S
V20    Er39   10.003   .     S
V20    Er28   10.003   .     S
V20    Er66   10.003   .     S
V20    Er52   10.003   .     S
V21    Er35   10.003   1_554 S
V21    Er46   10.003   .     S
V21    Er61   10.003   .     S
V21    Er72   10.003   1_554 S
V22    Er40   10.003   .     S
V22    Er27   10.003   .     S
V22    Er65   10.003   .     S
V22    Er53   10.003   .     S
V23    Er36   10.003   .     S
V23    Er48   10.003   1_554 S
V23    Er59   10.003   1_554 S
V23    Er70   10.003   .     S
V24    Er37   10.003   .     S
V24    Er25   10.003   .     S
V24    Er60   10.003   .     S
V24    Er51   10.003   .     S
Er25   Ti73    9.994   .     S
Er26   V3     10.003   1_655 S
Er26   Ti74    9.994   .     S
Er27   V5     10.003   1_655 S
Er27   Ti75    9.994   .     S
Er28   Ti76    9.994   .     S
Er29   Ti73    9.994   .     S
Er30   V11    10.003   1_565 S
Er30   Ti76    9.994   .     S
Er31   V13    10.003   1_565 S
Er31   Ti74    9.994   .     S
Er32   Ti75    9.994   .     S
Er33   Ti73    9.994   .     S
Er34   V19    10.003   1_556 S
Er34   Ti75    9.994   .     S
Er35   V21    10.003   1_556 S
Er35   Ti76    9.994   .     S
Er36   Ti74    9.994   .     S
Er37   Ti77    9.994   .     S
Er38   V15    10.003   1_565 S
Er38   Ti78    9.994   .     S
Er39   V9     10.003   1_565 S
Er39   Ti79    9.994   .     S
Er40   Ti80    9.994   .     S
Er41   Ti77    9.994   .     S
Er42   V1     10.003   1_655 S
Er42   Ti80    9.994   .     S
Er43   V7     10.003   1_655 S
Er43   Ti78    9.994   .     S
Er44   Ti79    9.994   .     S
Er45   V17    10.003   1_556 S
Er45   Ti77    9.994   .     S
Er46   Ti79    9.994   .     S
Er47   Ti80    9.994   .     S
Er48   V23    10.003   1_556 S
Er48   Ti78    9.994   .     S
Er49   V7     10.003   1_655 S
Er49   Ti78    9.994   .     S
Er50   Ti73    9.994   .     S
Er51   Ti77    9.994   .     S
Er52   Ti79    9.994   .     S
Er53   V1     10.003   1_655 S
Er53   Ti80    9.994   .     S
Er54   V15    10.003   1_565 S
Er54   Ti78    9.994   .     S
Er55   Ti73    9.994   .     S
Er56   Ti80    9.994   .     S
Er57   Ti77    9.994   .     S
Er58   V9     10.003   1_565 S
Er58   Ti79    9.994   .     S
Er59   V23    10.003   1_556 S
Er59   Ti78    9.994   .     S
Er60   Ti73    9.994   .     S
Er61   Ti79    9.994   .     S
Er62   Ti80    9.994   .     S
Er63   V17    10.003   1_556 S
Er63   Ti77    9.994   .     S
Er64   V13    10.003   1_565 S
Er64   Ti74    9.994   .     S
Er65   Ti75    9.994   .     S
Er66   V11    10.003   1_565 S
Er66   Ti76    9.994   .     S
Er67   V3     10.003   1_655 S
Er67   Ti74    9.994   .     S
Er68   Ti76    9.994   .     S
Er69   V5     10.003   1_655 S
Er69   Ti75    9.994   .     S
Er70   Ti74    9.994   .     S
Er71   V19    10.003   1_556 S
Er71   Ti75    9.994   .     S
Er72   V21    10.003   1_556 S
Er72   Ti76    9.994   .     S
