data_ffc
_audit_creation_date              2019-09-09
_audit_creation_method            'Materials Studio'
_symmetry_space_group_name_H-M    'P1'
_symmetry_Int_Tables_number       1
_symmetry_cell_setting            triclinic
loop_
_symmetry_equiv_pos_as_xyz
  x,y,z
_cell_length_a                    66.6680
_cell_length_b                    66.6680
_cell_length_c                    29.8120
_cell_angle_alpha                 90.0000
_cell_angle_beta                  90.0000
_cell_angle_gamma                 90.0000
loop_
_atom_site_label
_atom_site_type_symbol
_atom_site_fract_x
_atom_site_fract_y
_atom_site_fract_z
_atom_site_U_iso_or_equiv
_atom_site_adp_type
_atom_site_occupancy
V1     V     0.00000   0.25000   0.00000   0.00000  Uiso   1.00
V2     V     0.25000   0.00000   0.00000   0.00000  Uiso   1.00
Er3    Er    0.00000   0.00000   0.25000   0.00000  Uiso   1.00
Ti4    Ti    0.00000   0.15000   0.25000   0.00000  Uiso   1.00
Ti5    Ti    0.00000   0.35000   0.25000   0.00000  Uiso   1.00
Ti6    Ti    0.35000   0.00000   0.25000   0.00000  Uiso   1.00
Ti7    Ti    0.15000   0.00000   0.25000   0.00000  Uiso   1.00
V8     V     0.50000   0.25000   0.00000   0.00000  Uiso   1.00
V9     V     0.75000   0.00000   0.00000   0.00000  Uiso   1.00
Er10   Er    0.50000   0.00000   0.25000   0.00000  Uiso   1.00
Ti11   Ti    0.50000   0.15000   0.25000   0.00000  Uiso   1.00
Ti12   Ti    0.50000   0.35000   0.25000   0.00000  Uiso   1.00
Ti13   Ti    0.85000   0.00000   0.25000   0.00000  Uiso   1.00
Ti14   Ti    0.65000   0.00000   0.25000   0.00000  Uiso   1.00
V15    V     0.00000   0.75000   0.00000   0.00000  Uiso   1.00
V16    V     0.25000   0.50000   0.00000   0.00000  Uiso   1.00
Er17   Er    0.00000   0.50000   0.25000   0.00000  Uiso   1.00
Ti18   Ti    0.00000   0.65000   0.25000   0.00000  Uiso   1.00
Ti19   Ti    0.00000   0.85000   0.25000   0.00000  Uiso   1.00
Ti20   Ti    0.35000   0.50000   0.25000   0.00000  Uiso   1.00
Ti21   Ti    0.15000   0.50000   0.25000   0.00000  Uiso   1.00
V22    V     0.50000   0.75000   0.00000   0.00000  Uiso   1.00
V23    V     0.75000   0.50000   0.00000   0.00000  Uiso   1.00
Er24   Er    0.50000   0.50000   0.25000   0.00000  Uiso   1.00
Ti25   Ti    0.50000   0.65000   0.25000   0.00000  Uiso   1.00
Ti26   Ti    0.50000   0.85000   0.25000   0.00000  Uiso   1.00
Ti27   Ti    0.85000   0.50000   0.25000   0.00000  Uiso   1.00
Ti28   Ti    0.65000   0.50000   0.25000   0.00000  Uiso   1.00
V29    V     0.00000   0.25000   0.50000   0.00000  Uiso   1.00
V30    V     0.25000   0.00000   0.50000   0.00000  Uiso   1.00
Er31   Er    0.00000   0.00000   0.75000   0.00000  Uiso   1.00
Ti32   Ti    0.00000   0.15000   0.75000   0.00000  Uiso   1.00
Ti33   Ti    0.00000   0.35000   0.75000   0.00000  Uiso   1.00
Ti34   Ti    0.35000   0.00000   0.75000   0.00000  Uiso   1.00
Ti35   Ti    0.15000   0.00000   0.75000   0.00000  Uiso   1.00
V36    V     0.50000   0.25000   0.50000   0.00000  Uiso   1.00
V37    V     0.75000   0.00000   0.50000   0.00000  Uiso   1.00
Er38   Er    0.50000   0.00000   0.75000   0.00000  Uiso   1.00
Ti39   Ti    0.50000   0.15000   0.75000   0.00000  Uiso   1.00
Ti40   Ti    0.50000   0.35000   0.75000   0.00000  Uiso   1.00
Ti41   Ti    0.85000   0.00000   0.75000   0.00000  Uiso   1.00
Ti42   Ti    0.65000   0.00000   0.75000   0.00000  Uiso   1.00
V43    V     0.00000   0.75000   0.50000   0.00000  Uiso   1.00
V44    V     0.25000   0.50000   0.50000   0.00000  Uiso   1.00
Er45   Er    0.00000   0.50000   0.75000   0.00000  Uiso   1.00
Ti46   Ti    0.00000   0.65000   0.75000   0.00000  Uiso   1.00
Ti47   Ti    0.00000   0.85000   0.75000   0.00000  Uiso   1.00
Ti48   Ti    0.35000   0.50000   0.75000   0.00000  Uiso   1.00
Ti49   Ti    0.15000   0.50000   0.75000   0.00000  Uiso   1.00
V50    V     0.50000   0.75000   0.50000   0.00000  Uiso   1.00
V51    V     0.75000   0.50000   0.50000   0.00000  Uiso   1.00
Er52   Er    0.50000   0.50000   0.75000   0.00000  Uiso   1.00
Ti53   Ti    0.50000   0.65000   0.75000   0.00000  Uiso   1.00
Ti54   Ti    0.50000   0.85000   0.75000   0.00000  Uiso   1.00
Ti55   Ti    0.85000   0.50000   0.75000   0.00000  Uiso   1.00
Ti56   Ti    0.65000   0.50000   0.75000   0.00000  Uiso   1.00
loop_
_geom_bond_atom_site_label_1
_geom_bond_atom_site_label_2
_geom_bond_distance
_geom_bond_site_symmetry_2
_ccdc_geom_bond_type
V1     Ti5    10.000   .     S
V1     Ti4    10.000   .     S
V1     Ti33   10.000   1_554 S
V1     Ti32   10.000   1_554 S
V2     Ti7    10.000   .     S
V2     Ti6    10.000   .     S
V2     Ti35   10.000   1_554 S
V2     Ti34   10.000   1_554 S
Er3    Ti7    10.000   .     S
Er3    Ti13   10.000   1_455 S
Er3    Ti4    10.000   .     S
Er3    Ti19   10.000   1_545 S
Ti4    V29    10.000   .     S
Ti5    V29    10.000   .     S
Ti5    Er17   10.000   .     S
Ti6    V30    10.000   .     S
Ti6    Er10   10.000   .     S
Ti7    V30    10.000   .     S
V8     Ti12   10.000   .     S
V8     Ti11   10.000   .     S
V8     Ti40   10.000   1_554 S
V8     Ti39   10.000   1_554 S
V9     Ti14   10.000   .     S
V9     Ti13   10.000   .     S
V9     Ti42   10.000   1_554 S
V9     Ti41   10.000   1_554 S
Er10   Ti14   10.000   .     S
Er10   Ti11   10.000   .     S
Er10   Ti26   10.000   1_545 S
Ti11   V36    10.000   .     S
Ti12   V36    10.000   .     S
Ti12   Er24   10.000   .     S
Ti13   V37    10.000   .     S
Ti13   Er3    10.000   1_655 S
Ti14   V37    10.000   .     S
V15    Ti19   10.000   .     S
V15    Ti18   10.000   .     S
V15    Ti47   10.000   1_554 S
V15    Ti46   10.000   1_554 S
V16    Ti21   10.000   .     S
V16    Ti20   10.000   .     S
V16    Ti49   10.000   1_554 S
V16    Ti48   10.000   1_554 S
Er17   Ti21   10.000   .     S
Er17   Ti27   10.000   1_455 S
Er17   Ti18   10.000   .     S
Ti18   V43    10.000   .     S
Ti19   V43    10.000   .     S
Ti19   Er3    10.000   1_565 S
Ti20   V44    10.000   .     S
Ti20   Er24   10.000   .     S
Ti21   V44    10.000   .     S
V22    Ti26   10.000   .     S
V22    Ti25   10.000   .     S
V22    Ti54   10.000   1_554 S
V22    Ti53   10.000   1_554 S
V23    Ti28   10.000   .     S
V23    Ti27   10.000   .     S
V23    Ti56   10.000   1_554 S
V23    Ti55   10.000   1_554 S
Er24   Ti28   10.000   .     S
Er24   Ti25   10.000   .     S
Ti25   V50    10.000   .     S
Ti26   V50    10.000   .     S
Ti26   Er10   10.000   1_565 S
Ti27   V51    10.000   .     S
Ti27   Er17   10.000   1_655 S
Ti28   V51    10.000   .     S
V29    Ti33   10.000   .     S
V29    Ti32   10.000   .     S
V30    Ti35   10.000   .     S
V30    Ti34   10.000   .     S
Er31   Ti35   10.000   .     S
Er31   Ti41   10.000   1_455 S
Er31   Ti32   10.000   .     S
Er31   Ti47   10.000   1_545 S
Ti32   V1     10.000   1_556 S
Ti33   V1     10.000   1_556 S
Ti33   Er45   10.000   .     S
Ti34   V2     10.000   1_556 S
Ti34   Er38   10.000   .     S
Ti35   V2     10.000   1_556 S
V36    Ti40   10.000   .     S
V36    Ti39   10.000   .     S
V37    Ti42   10.000   .     S
V37    Ti41   10.000   .     S
Er38   Ti42   10.000   .     S
Er38   Ti39   10.000   .     S
Er38   Ti54   10.000   1_545 S
Ti39   V8     10.000   1_556 S
Ti40   V8     10.000   1_556 S
Ti40   Er52   10.000   .     S
Ti41   V9     10.000   1_556 S
Ti41   Er31   10.000   1_655 S
Ti42   V9     10.000   1_556 S
V43    Ti47   10.000   .     S
V43    Ti46   10.000   .     S
V44    Ti49   10.000   .     S
V44    Ti48   10.000   .     S
Er45   Ti49   10.000   .     S
Er45   Ti55   10.000   1_455 S
Er45   Ti46   10.000   .     S
Ti46   V15    10.000   1_556 S
Ti47   V15    10.000   1_556 S
Ti47   Er31   10.000   1_565 S
Ti48   V16    10.000   1_556 S
Ti48   Er52   10.000   .     S
Ti49   V16    10.000   1_556 S
V50    Ti54   10.000   .     S
V50    Ti53   10.000   .     S
V51    Ti56   10.000   .     S
V51    Ti55   10.000   .     S
Er52   Ti56   10.000   .     S
Er52   Ti53   10.000   .     S
Ti53   V22    10.000   1_556 S
Ti54   V22    10.000   1_556 S
Ti54   Er38   10.000   1_565 S
Ti55   V23    10.000   1_556 S
Ti55   Er45   10.000   1_655 S
Ti56   V23    10.000   1_556 S
