data_FLU_4_8
_audit_creation_date              2018-09-26
_audit_creation_method            'Materials Studio'
_symmetry_space_group_name_H-M    'P1'
_symmetry_Int_Tables_number       1
_symmetry_cell_setting            triclinic
loop_
_symmetry_equiv_pos_as_xyz
  x,y,z
_cell_length_a                    23.0940
_cell_length_b                    23.0940
_cell_length_c                    23.0940
_cell_angle_alpha                 90.0000
_cell_angle_beta                  90.0000
_cell_angle_gamma                 90.0000
loop_
_atom_site_label
_atom_site_type_symbol
_atom_site_fract_x
_atom_site_fract_y
_atom_site_fract_z
_atom_site_U_iso_or_equiv
_atom_site_adp_type
_atom_site_occupancy
V1     V     0.25000   0.25000   0.25000   0.00000  Uiso   1.00
V2     V     0.75000   0.75000   0.25000   0.00000  Uiso   1.00
V3     V     0.75000   0.25000   0.75000   0.00000  Uiso   1.00
V4     V     0.25000   0.75000   0.75000   0.00000  Uiso   1.00
V5     V     0.25000   0.25000   0.75000   0.00000  Uiso   1.00
V6     V     0.75000   0.75000   0.75000   0.00000  Uiso   1.00
V7     V     0.75000   0.25000   0.25000   0.00000  Uiso   1.00
V8     V     0.25000   0.75000   0.25000   0.00000  Uiso   1.00
Er9    Er    0.00000   0.00000   0.00000   0.00000  Uiso   1.00
Er10   Er    0.00000   0.50000   0.50000   0.00000  Uiso   1.00
Er11   Er    0.50000   0.00000   0.50000   0.00000  Uiso   1.00
Er12   Er    0.50000   0.50000   0.00000   0.00000  Uiso   1.00
loop_
_geom_bond_atom_site_label_1
_geom_bond_atom_site_label_2
_geom_bond_distance
_geom_bond_site_symmetry_2
_ccdc_geom_bond_type
V1     Er12   10.000   .     S
V1     Er10   10.000   .     S
V1     Er11   10.000   .     S
V1     Er9    10.000   .     S
V2     Er12   10.000   .     S
V2     Er10   10.000   1_655 S
V2     Er11   10.000   1_565 S
V2     Er9    10.000   1_665 S
V3     Er12   10.000   1_556 S
V3     Er10   10.000   1_655 S
V3     Er11   10.000   .     S
V3     Er9    10.000   1_656 S
V4     Er12   10.000   1_556 S
V4     Er10   10.000   .     S
V4     Er11   10.000   1_565 S
V4     Er9    10.000   1_566 S
V5     Er12   10.000   1_556 S
V5     Er11   10.000   .     S
V5     Er10   10.000   .     S
V5     Er9    10.000   1_556 S
V6     Er12   10.000   1_556 S
V6     Er11   10.000   1_565 S
V6     Er10   10.000   1_655 S
V6     Er9    10.000   1_666 S
V7     Er12   10.000   .     S
V7     Er11   10.000   .     S
V7     Er10   10.000   1_655 S
V7     Er9    10.000   1_655 S
V8     Er12   10.000   .     S
V8     Er11   10.000   1_565 S
V8     Er10   10.000   .     S
V8     Er9    10.000   1_565 S
Er9    V2     10.000   1_445 S
Er9    V4     10.000   1_544 S
Er9    V3     10.000   1_454 S
Er9    V6     10.000   1_444 S
Er9    V5     10.000   1_554 S
Er9    V7     10.000   1_455 S
Er9    V8     10.000   1_545 S
Er10   V3     10.000   1_455 S
Er10   V2     10.000   1_455 S
Er10   V7     10.000   1_455 S
Er10   V6     10.000   1_455 S
Er11   V4     10.000   1_545 S
Er11   V2     10.000   1_545 S
Er11   V8     10.000   1_545 S
Er11   V6     10.000   1_545 S
Er12   V3     10.000   1_554 S
Er12   V4     10.000   1_554 S
Er12   V5     10.000   1_554 S
Er12   V6     10.000   1_554 S
