data_flue
_audit_creation_date              2019-09-09
_audit_creation_method            'Materials Studio'
_symmetry_space_group_name_H-M    'P1'
_symmetry_Int_Tables_number       1
_symmetry_cell_setting            triclinic
loop_
_symmetry_equiv_pos_as_xyz
  x,y,z
_cell_length_a                    34.1420
_cell_length_b                    34.1420
_cell_length_c                    34.1420
_cell_angle_alpha                 90.0000
_cell_angle_beta                  90.0000
_cell_angle_gamma                 90.0000
loop_
_atom_site_label
_atom_site_type_symbol
_atom_site_fract_x
_atom_site_fract_y
_atom_site_fract_z
_atom_site_U_iso_or_equiv
_atom_site_adp_type
_atom_site_occupancy
V1     V     0.14640   0.14640   0.14640   0.00000  Uiso   1.00
V2     V     0.14640   0.64640   0.64640   0.00000  Uiso   1.00
V3     V     0.64640   0.14640   0.64640   0.00000  Uiso   1.00
V4     V     0.64640   0.64640   0.14640   0.00000  Uiso   1.00
V5     V     0.85360   0.85360   0.14640   0.00000  Uiso   1.00
V6     V     0.85360   0.35360   0.64640   0.00000  Uiso   1.00
V7     V     0.35360   0.85360   0.64640   0.00000  Uiso   1.00
V8     V     0.35360   0.35360   0.14640   0.00000  Uiso   1.00
V9     V     0.85360   0.14640   0.85360   0.00000  Uiso   1.00
V10    V     0.85360   0.64640   0.35360   0.00000  Uiso   1.00
V11    V     0.35360   0.14640   0.35360   0.00000  Uiso   1.00
V12    V     0.35360   0.64640   0.85360   0.00000  Uiso   1.00
V13    V     0.14640   0.85360   0.85360   0.00000  Uiso   1.00
V14    V     0.14640   0.35360   0.35360   0.00000  Uiso   1.00
V15    V     0.64640   0.85360   0.35360   0.00000  Uiso   1.00
V16    V     0.64640   0.35360   0.85360   0.00000  Uiso   1.00
V17    V     0.14640   0.14640   0.85360   0.00000  Uiso   1.00
V18    V     0.14640   0.64640   0.35360   0.00000  Uiso   1.00
V19    V     0.64640   0.14640   0.35360   0.00000  Uiso   1.00
V20    V     0.64640   0.64640   0.85360   0.00000  Uiso   1.00
V21    V     0.85360   0.85360   0.85360   0.00000  Uiso   1.00
V22    V     0.85360   0.35360   0.35360   0.00000  Uiso   1.00
V23    V     0.35360   0.85360   0.35360   0.00000  Uiso   1.00
V24    V     0.35360   0.35360   0.85360   0.00000  Uiso   1.00
V25    V     0.14640   0.85360   0.14640   0.00000  Uiso   1.00
V26    V     0.14640   0.35360   0.64640   0.00000  Uiso   1.00
V27    V     0.64640   0.85360   0.64640   0.00000  Uiso   1.00
V28    V     0.64640   0.35360   0.14640   0.00000  Uiso   1.00
V29    V     0.85360   0.14640   0.14640   0.00000  Uiso   1.00
V30    V     0.85360   0.64640   0.64640   0.00000  Uiso   1.00
V31    V     0.35360   0.14640   0.64640   0.00000  Uiso   1.00
V32    V     0.35360   0.64640   0.14640   0.00000  Uiso   1.00
loop_
_geom_bond_atom_site_label_1
_geom_bond_atom_site_label_2
_geom_bond_distance
_geom_bond_site_symmetry_2
_ccdc_geom_bond_type
V1     V11    10.004   .     S
V1     V8     10.004   .     S
V1     V14    10.004   .     S
V1     V29     9.997   1_455 S
V1     V25     9.997   1_545 S
V1     V17     9.997   1_554 S
V2     V12    10.004   .     S
V2     V7     10.004   .     S
V2     V13    10.004   .     S
V2     V30     9.997   1_455 S
V2     V26     9.997   .     S
V2     V18     9.997   .     S
V3     V9     10.004   .     S
V3     V6     10.004   .     S
V3     V16    10.004   .     S
V3     V31     9.997   .     S
V3     V27     9.997   1_545 S
V3     V19     9.997   .     S
V4     V10    10.004   .     S
V4     V5     10.004   .     S
V4     V15    10.004   .     S
V4     V32     9.997   .     S
V4     V28     9.997   .     S
V4     V20     9.997   1_554 S
V5     V15    10.004   .     S
V5     V10    10.004   .     S
V5     V25     9.997   1_655 S
V5     V29     9.997   1_565 S
V5     V21     9.997   1_554 S
V6     V16    10.004   .     S
V6     V9     10.004   .     S
V6     V26     9.997   1_655 S
V6     V30     9.997   .     S
V6     V22     9.997   .     S
V7     V13    10.004   .     S
V7     V12    10.004   .     S
V7     V27     9.997   .     S
V7     V31     9.997   1_565 S
V7     V23     9.997   .     S
V8     V14    10.004   .     S
V8     V11    10.004   .     S
V8     V28     9.997   .     S
V8     V32     9.997   .     S
V8     V24     9.997   1_554 S
V9     V16    10.004   .     S
V9     V17     9.997   1_655 S
V9     V21     9.997   1_545 S
V9     V29     9.997   1_556 S
V10    V15    10.004   .     S
V10    V18     9.997   1_655 S
V10    V22     9.997   .     S
V10    V30     9.997   .     S
V11    V14    10.004   .     S
V11    V19     9.997   .     S
V11    V23     9.997   1_545 S
V11    V31     9.997   .     S
V12    V13    10.004   .     S
V12    V20     9.997   .     S
V12    V24     9.997   .     S
V12    V32     9.997   1_556 S
V13    V21     9.997   1_455 S
V13    V17     9.997   1_565 S
V13    V25     9.997   1_556 S
V14    V22     9.997   1_455 S
V14    V18     9.997   .     S
V14    V26     9.997   .     S
V15    V23     9.997   .     S
V15    V19     9.997   1_565 S
V15    V27     9.997   .     S
V16    V24     9.997   .     S
V16    V20     9.997   .     S
V16    V28     9.997   1_556 S
V17    V26    10.004   .     S
V17    V24    10.004   .     S
V17    V31    10.004   .     S
V17    V13     9.997   1_545 S
V17    V9      9.997   1_455 S
V17    V1      9.997   1_556 S
V18    V25    10.004   .     S
V18    V23    10.004   .     S
V18    V32    10.004   .     S
V18    V10     9.997   1_455 S
V19    V28    10.004   .     S
V19    V22    10.004   .     S
V19    V29    10.004   .     S
V19    V15     9.997   1_545 S
V20    V27    10.004   .     S
V20    V21    10.004   .     S
V20    V30    10.004   .     S
V20    V4      9.997   1_556 S
V21    V30    10.004   .     S
V21    V27    10.004   .     S
V21    V9      9.997   1_565 S
V21    V13     9.997   1_655 S
V21    V5      9.997   1_556 S
V22    V29    10.004   .     S
V22    V28    10.004   .     S
V22    V14     9.997   1_655 S
V23    V32    10.004   .     S
V23    V25    10.004   .     S
V23    V11     9.997   1_565 S
V24    V31    10.004   .     S
V24    V26    10.004   .     S
V24    V8      9.997   1_556 S
V25    V32    10.004   .     S
V25    V1      9.997   1_565 S
V25    V5      9.997   1_455 S
V25    V13     9.997   1_554 S
V26    V31    10.004   .     S
V26    V6      9.997   1_455 S
V27    V30    10.004   .     S
V27    V3      9.997   1_565 S
V28    V29    10.004   .     S
V28    V16     9.997   1_554 S
V29    V5      9.997   1_545 S
V29    V1      9.997   1_655 S
V29    V9      9.997   1_554 S
V30    V2      9.997   1_655 S
V31    V7      9.997   1_545 S
V32    V12     9.997   1_554 S
