data_fof
_audit_creation_date              2018-12-10
_audit_creation_method            'Materials Studio'
_symmetry_space_group_name_H-M    'P1'
_symmetry_Int_Tables_number       1
_symmetry_cell_setting            triclinic
loop_
_symmetry_equiv_pos_as_xyz
  x,y,z
_cell_length_a                    33.9320
_cell_length_b                    33.9320
_cell_length_c                    54.3330
_cell_angle_alpha                 90.0000
_cell_angle_beta                  90.0000
_cell_angle_gamma                 120.0000
loop_
_atom_site_label
_atom_site_type_symbol
_atom_site_fract_x
_atom_site_fract_y
_atom_site_fract_z
_atom_site_U_iso_or_equiv
_atom_site_adp_type
_atom_site_occupancy
V1     V     0.25240   0.12620   0.24760   0.00000  Uiso   1.00
V2     V     0.91907   0.45953   0.58093   0.00000  Uiso   1.00
V3     V     0.58573   0.79287   0.91427   0.00000  Uiso   1.00
V4     V     0.87380   0.12620   0.24760   0.00000  Uiso   1.00
V5     V     0.54047   0.45953   0.58093   0.00000  Uiso   1.00
V6     V     0.20713   0.79287   0.91427   0.00000  Uiso   1.00
V7     V     0.87380   0.74760   0.24760   0.00000  Uiso   1.00
V8     V     0.54047   0.08093   0.58093   0.00000  Uiso   1.00
V9     V     0.20713   0.41427   0.91427   0.00000  Uiso   1.00
V10    V     0.12620   0.25240   0.75240   0.00000  Uiso   1.00
V11    V     0.79287   0.58573   0.08573   0.00000  Uiso   1.00
V12    V     0.45953   0.91907   0.41907   0.00000  Uiso   1.00
V13    V     0.12620   0.87380   0.75240   0.00000  Uiso   1.00
V14    V     0.79287   0.20713   0.08573   0.00000  Uiso   1.00
V15    V     0.45953   0.54047   0.41907   0.00000  Uiso   1.00
V16    V     0.74760   0.87380   0.75240   0.00000  Uiso   1.00
V17    V     0.41427   0.20713   0.08573   0.00000  Uiso   1.00
V18    V     0.08093   0.54047   0.41907   0.00000  Uiso   1.00
Er19   Er    0.00000   0.50000   0.00000   0.00000  Uiso   1.00
Er20   Er    0.66667   0.83333   0.33333   0.00000  Uiso   1.00
Er21   Er    0.33333   0.16667   0.66667   0.00000  Uiso   1.00
Er22   Er    0.50000   0.50000   0.00000   0.00000  Uiso   1.00
Er23   Er    0.16667   0.83333   0.33333   0.00000  Uiso   1.00
Er24   Er    0.83333   0.16667   0.66667   0.00000  Uiso   1.00
Er25   Er    0.50000   0.00000   0.00000   0.00000  Uiso   1.00
Er26   Er    0.16667   0.33333   0.33333   0.00000  Uiso   1.00
Er27   Er    0.83333   0.66667   0.66667   0.00000  Uiso   1.00
loop_
_geom_bond_atom_site_label_1
_geom_bond_atom_site_label_2
_geom_bond_distance
_geom_bond_site_symmetry_2
_ccdc_geom_bond_type
V1     Er23   10.000   1_545 S
V1     Er26   10.000   .     S
V1     V17     9.999   .     S
V2     Er24   10.000   .     S
V2     Er27   10.000   .     S
V2     V18     9.999   1_655 S
V3     Er22   10.000   1_556 S
V3     Er25   10.000   1_566 S
V3     V16     9.999   .     S
V4     Er26   10.000   1_655 S
V4     Er20   10.000   1_545 S
V4     V14     9.999   .     S
V5     Er27   10.000   .     S
V5     Er21   10.000   .     S
V5     V15     9.999   .     S
V6     Er25   10.000   1_566 S
V6     Er19   10.000   1_556 S
V6     V13     9.999   .     S
V7     Er20   10.000   .     S
V7     Er23   10.000   1_655 S
V7     V11     9.999   .     S
V8     Er21   10.000   .     S
V8     Er24   10.000   .     S
V8     V12     9.999   1_545 S
V9     Er19   10.000   1_556 S
V9     Er22   10.000   1_556 S
V9     V10     9.999   .     S
V10    Er24   10.000   1_455 S
V10    Er21   10.000   .     S
V11    Er22   10.000   .     S
V11    Er19   10.000   1_655 S
V12    Er23   10.000   .     S
V12    Er20   10.000   .     S
V12    V8      9.999   1_565 S
V13    Er21   10.000   1_565 S
V13    Er27   10.000   1_455 S
V14    Er19   10.000   1_655 S
V14    Er25   10.000   .     S
V15    Er20   10.000   .     S
V15    Er26   10.000   .     S
V16    Er27   10.000   .     S
V16    Er24   10.000   1_565 S
V17    Er25   10.000   .     S
V17    Er22   10.000   .     S
V18    Er26   10.000   .     S
V18    Er23   10.000   .     S
V18    V2      9.999   1_455 S
Er19   V9     10.000   1_554 S
Er19   V14    10.000   1_455 S
Er19   V11    10.000   1_455 S
Er19   V6     10.000   1_554 S
Er20   V4     10.000   1_565 S
Er21   V13    10.000   1_545 S
Er22   V3     10.000   1_554 S
Er22   V9     10.000   1_554 S
Er23   V1     10.000   1_565 S
Er23   V7     10.000   1_455 S
Er24   V10    10.000   1_655 S
Er24   V16    10.000   1_545 S
Er25   V6     10.000   1_544 S
Er25   V3     10.000   1_544 S
Er26   V4     10.000   1_455 S
Er27   V13    10.000   1_655 S
