data_fsc\(2)
_audit_creation_date              2018-10-08
_audit_creation_method            'Materials Studio'
_symmetry_space_group_name_H-M    'P1'
_symmetry_Int_Tables_number       1
_symmetry_cell_setting            triclinic
loop_
_symmetry_equiv_pos_as_xyz
  x,y,z
_cell_length_a                    28.2840
_cell_length_b                    28.2840
_cell_length_c                    20.0000
_cell_angle_alpha                 90.0000
_cell_angle_beta                  90.0000
_cell_angle_gamma                 90.0000
loop_
_atom_site_label
_atom_site_type_symbol
_atom_site_fract_x
_atom_site_fract_y
_atom_site_fract_z
_atom_site_U_iso_or_equiv
_atom_site_adp_type
_atom_site_occupancy
Er1    Er    0.25000   0.25000   0.00000   0.00000  Uiso   1.00
V2     V     0.00000   0.00000   0.00000   0.00000  Uiso   1.00
Er3    Er    0.75000   0.25000   0.00000   0.00000  Uiso   1.00
V4     V     0.50000   0.00000   0.00000   0.00000  Uiso   1.00
Er5    Er    0.25000   0.75000   0.00000   0.00000  Uiso   1.00
V6     V     0.00000   0.50000   0.00000   0.00000  Uiso   1.00
Er7    Er    0.75000   0.75000   0.00000   0.00000  Uiso   1.00
V8     V     0.50000   0.50000   0.00000   0.00000  Uiso   1.00
Er9    Er    0.25000   0.25000   0.50000   0.00000  Uiso   1.00
V10    V     0.00000   0.00000   0.50000   0.00000  Uiso   1.00
Er11   Er    0.75000   0.25000   0.50000   0.00000  Uiso   1.00
V12    V     0.50000   0.00000   0.50000   0.00000  Uiso   1.00
Er13   Er    0.25000   0.75000   0.50000   0.00000  Uiso   1.00
V14    V     0.00000   0.50000   0.50000   0.00000  Uiso   1.00
Er15   Er    0.75000   0.75000   0.50000   0.00000  Uiso   1.00
V16    V     0.50000   0.50000   0.50000   0.00000  Uiso   1.00
loop_
_geom_bond_atom_site_label_1
_geom_bond_atom_site_label_2
_geom_bond_distance
_geom_bond_site_symmetry_2
_ccdc_geom_bond_type
Er1    V2     10.000   .     S
Er1    V6     10.000   .     S
Er1    V4     10.000   .     S
Er1    V8     10.000   .     S
Er1    Er9    10.000   1_554 S
V2     Er5    10.000   1_545 S
V2     Er3    10.000   1_455 S
V2     Er7    10.000   1_445 S
Er3    V4     10.000   .     S
Er3    V8     10.000   .     S
Er3    V2     10.000   1_655 S
Er3    V6     10.000   1_655 S
Er3    Er11   10.000   1_554 S
V4     Er7    10.000   1_545 S
V4     Er5    10.000   1_545 S
Er5    V6     10.000   .     S
Er5    V2     10.000   1_565 S
Er5    V8     10.000   .     S
Er5    V4     10.000   1_565 S
Er5    Er13   10.000   1_554 S
V6     Er7    10.000   1_455 S
V6     Er3    10.000   1_455 S
Er7    V8     10.000   .     S
Er7    V4     10.000   1_565 S
Er7    V6     10.000   1_655 S
Er7    V2     10.000   1_665 S
Er7    Er15   10.000   1_554 S
Er9    V10    10.000   .     S
Er9    V14    10.000   .     S
Er9    V12    10.000   .     S
Er9    V16    10.000   .     S
Er9    Er1    10.000   1_556 S
V10    Er13   10.000   1_545 S
V10    Er11   10.000   1_455 S
V10    Er15   10.000   1_445 S
Er11   V12    10.000   .     S
Er11   V16    10.000   .     S
Er11   V10    10.000   1_655 S
Er11   V14    10.000   1_655 S
Er11   Er3    10.000   1_556 S
V12    Er15   10.000   1_545 S
V12    Er13   10.000   1_545 S
Er13   V14    10.000   .     S
Er13   V10    10.000   1_565 S
Er13   V16    10.000   .     S
Er13   V12    10.000   1_565 S
Er13   Er5    10.000   1_556 S
V14    Er15   10.000   1_455 S
V14    Er11   10.000   1_455 S
Er15   V16    10.000   .     S
Er15   V12    10.000   1_565 S
Er15   V14    10.000   1_655 S
Er15   V10    10.000   1_665 S
Er15   Er7    10.000   1_556 S
