data_gao
_audit_creation_date              2019-09-09
_audit_creation_method            'Materials Studio'
_symmetry_space_group_name_H-M    'P1'
_symmetry_Int_Tables_number       1
_symmetry_cell_setting            triclinic
loop_
_symmetry_equiv_pos_as_xyz
  x,y,z
_cell_length_a                    32.0000
_cell_length_b                    32.0000
_cell_length_c                    32.0000
_cell_angle_alpha                 90.0000
_cell_angle_beta                  90.0000
_cell_angle_gamma                 90.0000
loop_
_atom_site_label
_atom_site_type_symbol
_atom_site_fract_x
_atom_site_fract_y
_atom_site_fract_z
_atom_site_U_iso_or_equiv
_atom_site_adp_type
_atom_site_occupancy
V1     V     0.00000   0.00000   0.31250   0.00000  Uiso   1.00
V2     V     0.00000   0.00000   0.68750   0.00000  Uiso   1.00
V3     V     0.31250   0.00000   0.00000   0.00000  Uiso   1.00
V4     V     0.68750   0.00000   0.00000   0.00000  Uiso   1.00
V5     V     0.00000   0.31250   0.00000   0.00000  Uiso   1.00
V6     V     0.00000   0.68750   0.00000   0.00000  Uiso   1.00
V7     V     0.50000   0.50000   0.18750   0.00000  Uiso   1.00
V8     V     0.50000   0.50000   0.81250   0.00000  Uiso   1.00
V9     V     0.50000   0.81250   0.50000   0.00000  Uiso   1.00
V10    V     0.50000   0.18750   0.50000   0.00000  Uiso   1.00
V11    V     0.81250   0.50000   0.50000   0.00000  Uiso   1.00
V12    V     0.18750   0.50000   0.50000   0.00000  Uiso   1.00
Er13   Er    0.00000   0.25000   0.50000   0.00000  Uiso   1.00
Er14   Er    0.00000   0.75000   0.50000   0.00000  Uiso   1.00
Er15   Er    0.50000   0.00000   0.25000   0.00000  Uiso   1.00
Er16   Er    0.50000   0.00000   0.75000   0.00000  Uiso   1.00
Er17   Er    0.25000   0.50000   0.00000   0.00000  Uiso   1.00
Er18   Er    0.75000   0.50000   0.00000   0.00000  Uiso   1.00
Ti19   Ti    0.00000   0.00000   0.00000   0.00000  Uiso   1.00
Ti20   Ti    0.50000   0.50000   0.50000   0.00000  Uiso   1.00
loop_
_geom_bond_atom_site_label_1
_geom_bond_atom_site_label_2
_geom_bond_distance
_geom_bond_site_symmetry_2
_ccdc_geom_bond_type
V1     Ti19   10.000   .     S
V1     Er14   10.000   1_545 S
V1     Er13   10.000   .     S
V2     Ti19   10.000   1_556 S
V2     Er14   10.000   1_545 S
V2     Er13   10.000   .     S
V3     Ti19   10.000   .     S
V3     Er16   10.000   1_554 S
V3     Er15   10.000   .     S
V4     Ti19   10.000   1_655 S
V4     Er16   10.000   1_554 S
V4     Er15   10.000   .     S
V5     Ti19   10.000   .     S
V5     Er18   10.000   1_455 S
V5     Er17   10.000   .     S
V6     Ti19   10.000   1_565 S
V6     Er18   10.000   1_455 S
V6     Er17   10.000   .     S
V7     Ti20   10.000   .     S
V7     Er17   10.000   .     S
V7     Er18   10.000   .     S
V8     Ti20   10.000   .     S
V8     Er17   10.000   1_556 S
V8     Er18   10.000   1_556 S
V9     Ti20   10.000   .     S
V9     Er16   10.000   1_565 S
V9     Er15   10.000   1_565 S
V10    Ti20   10.000   .     S
V10    Er16   10.000   .     S
V10    Er15   10.000   .     S
V11    Ti20   10.000   .     S
V11    Er13   10.000   1_655 S
V11    Er14   10.000   1_655 S
V12    Ti20   10.000   .     S
V12    Er13   10.000   .     S
V12    Er14   10.000   .     S
Er13   V11    10.000   1_455 S
Er14   V11    10.000   1_455 S
Er14   V1     10.000   1_565 S
Er14   V2     10.000   1_565 S
Er15   V9     10.000   1_545 S
Er16   V9     10.000   1_545 S
Er16   V3     10.000   1_556 S
Er16   V4     10.000   1_556 S
Er17   V8     10.000   1_554 S
Er18   V8     10.000   1_554 S
Er18   V5     10.000   1_655 S
Er18   V6     10.000   1_655 S
Ti19   V6     10.000   1_545 S
Ti19   V2     10.000   1_554 S
Ti19   V4     10.000   1_455 S
