data_gee
_audit_creation_date              2019-09-09
_audit_creation_method            'Materials Studio'
_symmetry_space_group_name_H-M    'P1'
_symmetry_Int_Tables_number       1
_symmetry_cell_setting            triclinic
loop_
_symmetry_equiv_pos_as_xyz
  x,y,z
_cell_length_a                    34.1430
_cell_length_b                    34.1430
_cell_length_c                    34.1430
_cell_angle_alpha                 90.0000
_cell_angle_beta                  90.0000
_cell_angle_gamma                 90.0000
loop_
_atom_site_label
_atom_site_type_symbol
_atom_site_fract_x
_atom_site_fract_y
_atom_site_fract_z
_atom_site_U_iso_or_equiv
_atom_site_adp_type
_atom_site_occupancy
V1     V     0.00000   0.00000   0.29290   0.00000  Uiso   1.00
V2     V     0.00000   0.00000   0.70710   0.00000  Uiso   1.00
V3     V     0.29290   0.00000   0.00000   0.00000  Uiso   1.00
V4     V     0.70710   0.00000   0.00000   0.00000  Uiso   1.00
V5     V     0.00000   0.29290   0.00000   0.00000  Uiso   1.00
V6     V     0.00000   0.70710   0.00000   0.00000  Uiso   1.00
Er7    Er    0.00000   0.29290   0.29290   0.00000  Uiso   1.00
Er8    Er    0.00000   0.70710   0.29290   0.00000  Uiso   1.00
Er9    Er    0.00000   0.29290   0.70710   0.00000  Uiso   1.00
Er10   Er    0.00000   0.70710   0.70710   0.00000  Uiso   1.00
Er11   Er    0.29290   0.00000   0.29290   0.00000  Uiso   1.00
Er12   Er    0.29290   0.00000   0.70710   0.00000  Uiso   1.00
Er13   Er    0.70710   0.00000   0.29290   0.00000  Uiso   1.00
Er14   Er    0.70710   0.00000   0.70710   0.00000  Uiso   1.00
Er15   Er    0.29290   0.29290   0.00000   0.00000  Uiso   1.00
Er16   Er    0.70710   0.29290   0.00000   0.00000  Uiso   1.00
Er17   Er    0.29290   0.70710   0.00000   0.00000  Uiso   1.00
Er18   Er    0.70710   0.70710   0.00000   0.00000  Uiso   1.00
Ti19   Ti    0.00000   0.50000   0.50000   0.00000  Uiso   1.00
Ti20   Ti    0.50000   0.00000   0.50000   0.00000  Uiso   1.00
Ti21   Ti    0.50000   0.50000   0.00000   0.00000  Uiso   1.00
loop_
_geom_bond_atom_site_label_1
_geom_bond_atom_site_label_2
_geom_bond_distance
_geom_bond_site_symmetry_2
_ccdc_geom_bond_type
V1     Er8    10.000   1_545 S
V1     Er7    10.000   .     S
V1     Er13   10.000   1_455 S
V1     Er11   10.000   .     S
V2     Er10   10.000   1_545 S
V2     Er9    10.000   .     S
V2     Er12   10.000   .     S
V2     Er14   10.000   1_455 S
V3     Er12   10.000   1_554 S
V3     Er11   10.000   .     S
V3     Er17   10.000   1_545 S
V3     Er15   10.000   .     S
V4     Er14   10.000   1_554 S
V4     Er13   10.000   .     S
V4     Er16   10.000   .     S
V4     Er18   10.000   1_545 S
V5     Er16   10.000   1_455 S
V5     Er15   10.000   .     S
V5     Er9    10.000   1_554 S
V5     Er7    10.000   .     S
V6     Er18   10.000   1_455 S
V6     Er17   10.000   .     S
V6     Er8    10.000   .     S
V6     Er10   10.000   1_554 S
Er7    Ti19   10.000   .     S
Er8    Ti19   10.000   .     S
Er8    V1     10.000   1_565 S
Er9    Ti19   10.000   .     S
Er9    V5     10.000   1_556 S
Er10   Ti19   10.000   .     S
Er10   V2     10.000   1_565 S
Er10   V6     10.000   1_556 S
Er11   Ti20   10.000   .     S
Er12   Ti20   10.000   .     S
Er12   V3     10.000   1_556 S
Er13   Ti20   10.000   .     S
Er13   V1     10.000   1_655 S
Er14   Ti20   10.000   .     S
Er14   V4     10.000   1_556 S
Er14   V2     10.000   1_655 S
Er15   Ti21   10.000   .     S
Er16   Ti21   10.000   .     S
Er16   V5     10.000   1_655 S
Er17   Ti21   10.000   .     S
Er17   V3     10.000   1_565 S
Er18   Ti21   10.000   .     S
Er18   V6     10.000   1_655 S
Er18   V4     10.000   1_565 S
