data_geo
_audit_creation_date              2019-09-09
_audit_creation_method            'Materials Studio'
_symmetry_space_group_name_H-M    'P1'
_symmetry_Int_Tables_number       1
_symmetry_cell_setting            triclinic
loop_
_symmetry_equiv_pos_as_xyz
  x,y,z
_cell_length_a                    38.2290
_cell_length_b                    38.2290
_cell_length_c                    38.2290
_cell_angle_alpha                 90.0000
_cell_angle_beta                  90.0000
_cell_angle_gamma                 90.0000
loop_
_atom_site_label
_atom_site_type_symbol
_atom_site_fract_x
_atom_site_fract_y
_atom_site_fract_z
_atom_site_U_iso_or_equiv
_atom_site_adp_type
_atom_site_occupancy
V1     V     0.00000   0.13080   0.50000   0.00000  Uiso   1.00
V2     V     0.00000   0.86920   0.50000   0.00000  Uiso   1.00
V3     V     0.50000   0.00000   0.13080   0.00000  Uiso   1.00
V4     V     0.50000   0.00000   0.86920   0.00000  Uiso   1.00
V5     V     0.13080   0.50000   0.00000   0.00000  Uiso   1.00
V6     V     0.86920   0.50000   0.00000   0.00000  Uiso   1.00
Er7    Er    0.23840   0.23840   0.50000   0.00000  Uiso   1.00
Er8    Er    0.76160   0.76160   0.50000   0.00000  Uiso   1.00
Er9    Er    0.76160   0.23840   0.50000   0.00000  Uiso   1.00
Er10   Er    0.23840   0.76160   0.50000   0.00000  Uiso   1.00
Er11   Er    0.50000   0.23840   0.23840   0.00000  Uiso   1.00
Er12   Er    0.50000   0.76160   0.76160   0.00000  Uiso   1.00
Er13   Er    0.50000   0.76160   0.23840   0.00000  Uiso   1.00
Er14   Er    0.50000   0.23840   0.76160   0.00000  Uiso   1.00
Er15   Er    0.23840   0.50000   0.23840   0.00000  Uiso   1.00
Er16   Er    0.76160   0.50000   0.76160   0.00000  Uiso   1.00
Er17   Er    0.23840   0.50000   0.76160   0.00000  Uiso   1.00
Er18   Er    0.76160   0.50000   0.23840   0.00000  Uiso   1.00
Ti19   Ti    0.23850   0.50000   0.50000   0.00000  Uiso   1.00
Ti20   Ti    0.76150   0.50000   0.50000   0.00000  Uiso   1.00
Ti21   Ti    0.50000   0.23850   0.50000   0.00000  Uiso   1.00
Ti22   Ti    0.50000   0.76150   0.50000   0.00000  Uiso   1.00
Ti23   Ti    0.50000   0.50000   0.23850   0.00000  Uiso   1.00
Ti24   Ti    0.50000   0.50000   0.76150   0.00000  Uiso   1.00
loop_
_geom_bond_atom_site_label_1
_geom_bond_atom_site_label_2
_geom_bond_distance
_geom_bond_site_symmetry_2
_ccdc_geom_bond_type
V1     Er9     9.999   1_455 S
V1     Er7     9.999   .     S
V1     V2     10.001   1_545 S
V2     Er10    9.999   .     S
V2     Er8     9.999   1_455 S
V2     V1     10.001   1_565 S
V3     Er13    9.999   1_545 S
V3     Er11    9.999   .     S
V3     V4     10.001   1_554 S
V4     Er14    9.999   .     S
V4     Er12    9.999   1_545 S
V4     V3     10.001   1_556 S
V5     Er17    9.999   1_554 S
V5     Er15    9.999   .     S
V5     V6     10.001   1_455 S
V6     Er18    9.999   .     S
V6     Er16    9.999   1_554 S
V6     V5     10.001   1_655 S
Er7    Ti19   10.001   .     S
Er7    Ti21   10.001   .     S
Er8    Ti20   10.001   .     S
Er8    V2      9.999   1_655 S
Er8    Ti22   10.001   .     S
Er9    Ti20   10.001   .     S
Er9    V1      9.999   1_655 S
Er9    Ti21   10.001   .     S
Er10   Ti19   10.001   .     S
Er10   Ti22   10.001   .     S
Er11   Ti21   10.001   .     S
Er11   Ti23   10.001   .     S
Er12   Ti22   10.001   .     S
Er12   V4      9.999   1_565 S
Er12   Ti24   10.001   .     S
Er13   Ti22   10.001   .     S
Er13   V3      9.999   1_565 S
Er13   Ti23   10.001   .     S
Er14   Ti21   10.001   .     S
Er14   Ti24   10.001   .     S
Er15   Ti23   10.001   .     S
Er15   Ti19   10.001   .     S
Er16   Ti24   10.001   .     S
Er16   V6      9.999   1_556 S
Er16   Ti20   10.001   .     S
Er17   Ti24   10.001   .     S
Er17   V5      9.999   1_556 S
Er17   Ti19   10.001   .     S
Er18   Ti23   10.001   .     S
Er18   Ti20   10.001   .     S
