data_hof
_audit_creation_date              2018-06-21
_audit_creation_method            'Materials Studio'
_symmetry_space_group_name_H-M    'P1'
_symmetry_Int_Tables_number       1
_symmetry_cell_setting            triclinic
loop_
_symmetry_equiv_pos_as_xyz
  x,y,z
_cell_length_a                    10.0000
_cell_length_b                    10.0000
_cell_length_c                    10.0000
_cell_angle_alpha                 90.0000
_cell_angle_beta                  90.0000
_cell_angle_gamma                 90.0000
loop_
_atom_site_label
_atom_site_type_symbol
_atom_site_fract_x
_atom_site_fract_y
_atom_site_fract_z
_atom_site_U_iso_or_equiv
_atom_site_adp_type
_atom_site_occupancy
V1     V     0.00000   0.00000   0.00000   0.00000  Uiso   1.00
V2     V     0.50000   0.50000   0.50000   0.00000  Uiso   1.00
Er3    Er    0.19620   0.19620   0.00000   0.00000  Uiso   1.00
Er4    Er    0.69620   0.69620   0.50000   0.00000  Uiso   1.00
Er5    Er    0.80380   0.80380   0.00000   0.00000  Uiso   1.00
Er6    Er    0.30380   0.30380   0.50000   0.00000  Uiso   1.00
Er7    Er    0.80380   0.19620   0.00000   0.00000  Uiso   1.00
Er8    Er    0.30380   0.69620   0.50000   0.00000  Uiso   1.00
Er9    Er    0.19620   0.80380   0.00000   0.00000  Uiso   1.00
Er10   Er    0.69620   0.30380   0.50000   0.00000  Uiso   1.00
loop_
_geom_bond_atom_site_label_1
_geom_bond_atom_site_label_2
_geom_bond_distance
_geom_bond_site_symmetry_2
_ccdc_geom_bond_type
V1     Er3     2.775   .     S
V1     Er7     2.775   1_455 S
V1     Er9     2.775   1_545 S
V1     Er5     2.775   1_445 S
V2     Er8     2.775   .     S
V2     Er10    2.775   .     S
V2     Er6     2.775   .     S
V2     Er4     2.775   .     S
Er3    Er6     5.226   1_554 S
Er4    Er5     5.226   .     S
Er4    Er5     5.226   1_556 S
Er5    V1      2.775   1_665 S
Er5    Er4     5.226   1_554 S
Er6    Er3     5.226   1_556 S
Er7    V1      2.775   1_655 S
Er7    Er10    5.226   1_554 S
Er8    Er9     5.226   .     S
Er8    Er9     5.226   1_556 S
Er9    V1      2.775   1_565 S
Er9    Er8     5.226   1_554 S
Er10   Er7     5.226   1_556 S
Er3    Er6     5.226   .     S
Er7    Er10    5.226   .     S
