data_hwx\(2)
_audit_creation_date              2018-10-10
_audit_creation_method            'Materials Studio'
_symmetry_space_group_name_H-M    'P1'
_symmetry_Int_Tables_number       1
_symmetry_cell_setting            triclinic
loop_
_symmetry_equiv_pos_as_xyz
  x,y,z
_cell_length_a                    33.0520
_cell_length_b                    33.0520
_cell_length_c                    15.1270
_cell_angle_alpha                 90.0000
_cell_angle_beta                  90.0000
_cell_angle_gamma                 90.0000
loop_
_atom_site_label
_atom_site_type_symbol
_atom_site_fract_x
_atom_site_fract_y
_atom_site_fract_z
_atom_site_U_iso_or_equiv
_atom_site_adp_type
_atom_site_occupancy
V1     V     0.25000   0.75000   0.00000   0.00000  Uiso   1.00
V2     V     0.75000   0.25000   0.00000   0.00000  Uiso   1.00
V3     V     0.75000   0.75000   0.50000   0.00000  Uiso   1.00
V4     Er    0.25000   0.25000   0.50000   0.00000  Uiso   1.00
Er5    Er    0.23930   0.44760   0.00000   0.00000  Uiso   1.00
Er6    Er    0.76070   0.55240   0.00000   0.00000  Uiso   1.00
Er7    Er    0.05240   0.73930   0.50000   0.00000  Uiso   1.00
Er8    Er    0.94760   0.26070   0.50000   0.00000  Uiso   1.00
Er9    Er    0.26070   0.94760   0.50000   0.00000  Uiso   1.00
Er10   Er    0.73930   0.05240   0.50000   0.00000  Uiso   1.00
Er11   Er    0.44760   0.23930   0.00000   0.00000  Uiso   1.00
Er12   Er    0.55240   0.76070   0.00000   0.00000  Uiso   1.00
loop_
_geom_bond_atom_site_label_1
_geom_bond_atom_site_label_2
_geom_bond_distance
_geom_bond_site_symmetry_2
_ccdc_geom_bond_type
V1     Er9     9.999   .     S
V1     Er5    10.001   .     S
V1     Er12   10.001   .     S
V1     Er7     9.999   1_554 S
V1     Er9     9.999   1_554 S
V2     Er10    9.999   .     S
V2     Er6    10.001   .     S
V2     Er11   10.001   .     S
V2     Er8     9.999   1_554 S
V2     Er10    9.999   1_554 S
V3     Er6     9.999   .     S
V3     Er12    9.999   1_556 S
V3     Er6     9.999   1_556 S
V3     Er7    10.001   1_655 S
V3     Er10   10.001   1_565 S
V4     Er5     9.999   .     S
V4     Er11    9.999   1_556 S
V4     Er5     9.999   1_556 S
V4     Er8    10.001   1_455 S
V4     Er9    10.001   1_545 S
Er5    V4      9.999   1_554 S
Er6    V3      9.999   1_554 S
Er7    V1      9.999   1_556 S
Er7    V3     10.001   1_455 S
Er8    V2      9.999   1_556 S
Er8    V4     10.001   1_655 S
Er9    V1      9.999   1_556 S
Er9    V4     10.001   1_565 S
Er10   V2      9.999   1_556 S
Er10   V3     10.001   1_545 S
Er11   V4      9.999   1_554 S
Er12   V3      9.999   1_554 S
V4     Er11   10.000   .     S
V3     Er12   10.000   .     S
V1     Er7    10.000   .     S
V2     Er8    10.000   .     S
