data_iab
_audit_creation_date              2019-08-20
_audit_creation_method            'Materials Studio'
_symmetry_space_group_name_H-M    'P1'
_symmetry_Int_Tables_number       1
_symmetry_cell_setting            triclinic
loop_
_symmetry_equiv_pos_as_xyz
  x,y,z
_cell_length_a                    32.6600
_cell_length_b                    32.6600
_cell_length_c                    32.6600
_cell_angle_alpha                 90.0000
_cell_angle_beta                  90.0000
_cell_angle_gamma                 90.0000
loop_
_atom_site_label
_atom_site_type_symbol
_atom_site_fract_x
_atom_site_fract_y
_atom_site_fract_z
_atom_site_U_iso_or_equiv
_atom_site_adp_type
_atom_site_occupancy
V1     V     0.37500   0.00000   0.25000   0.00000  Uiso   1.00
V2     V     0.12500   0.00000   0.75000   0.00000  Uiso   1.00
V3     V     0.62500   0.50000   0.25000   0.00000  Uiso   1.00
V4     V     0.87500   0.50000   0.75000   0.00000  Uiso   1.00
V5     V     0.25000   0.37500   0.00000   0.00000  Uiso   1.00
V6     V     0.75000   0.12500   0.00000   0.00000  Uiso   1.00
V7     V     0.25000   0.62500   0.50000   0.00000  Uiso   1.00
V8     V     0.75000   0.87500   0.50000   0.00000  Uiso   1.00
V9     V     0.00000   0.25000   0.37500   0.00000  Uiso   1.00
V10    V     0.00000   0.75000   0.12500   0.00000  Uiso   1.00
V11    V     0.50000   0.25000   0.62500   0.00000  Uiso   1.00
V12    V     0.50000   0.75000   0.87500   0.00000  Uiso   1.00
V13    V     0.75000   0.62500   0.00000   0.00000  Uiso   1.00
V14    V     0.75000   0.37500   0.50000   0.00000  Uiso   1.00
V15    V     0.25000   0.87500   0.00000   0.00000  Uiso   1.00
V16    V     0.25000   0.12500   0.50000   0.00000  Uiso   1.00
V17    V     0.12500   0.50000   0.25000   0.00000  Uiso   1.00
V18    V     0.87500   0.00000   0.25000   0.00000  Uiso   1.00
V19    V     0.37500   0.50000   0.75000   0.00000  Uiso   1.00
V20    V     0.62500   0.00000   0.75000   0.00000  Uiso   1.00
V21    V     0.00000   0.25000   0.87500   0.00000  Uiso   1.00
V22    V     0.50000   0.25000   0.12500   0.00000  Uiso   1.00
V23    V     0.00000   0.75000   0.62500   0.00000  Uiso   1.00
V24    V     0.50000   0.75000   0.37500   0.00000  Uiso   1.00
Er25   Er    0.12500   0.12500   0.12500   0.00000  Uiso   1.00
Er26   Er    0.62500   0.62500   0.62500   0.00000  Uiso   1.00
Er27   Er    0.37500   0.87500   0.62500   0.00000  Uiso   1.00
Er28   Er    0.87500   0.62500   0.37500   0.00000  Uiso   1.00
Er29   Er    0.62500   0.37500   0.87500   0.00000  Uiso   1.00
Er30   Er    0.87500   0.37500   0.12500   0.00000  Uiso   1.00
Er31   Er    0.37500   0.12500   0.87500   0.00000  Uiso   1.00
Er32   Er    0.12500   0.87500   0.37500   0.00000  Uiso   1.00
Er33   Er    0.87500   0.87500   0.87500   0.00000  Uiso   1.00
Er34   Er    0.37500   0.37500   0.37500   0.00000  Uiso   1.00
Er35   Er    0.62500   0.12500   0.37500   0.00000  Uiso   1.00
Er36   Er    0.12500   0.37500   0.62500   0.00000  Uiso   1.00
Er37   Er    0.37500   0.62500   0.12500   0.00000  Uiso   1.00
Er38   Er    0.12500   0.62500   0.87500   0.00000  Uiso   1.00
Er39   Er    0.62500   0.87500   0.12500   0.00000  Uiso   1.00
Er40   Er    0.87500   0.12500   0.62500   0.00000  Uiso   1.00
loop_
_geom_bond_atom_site_label_1
_geom_bond_atom_site_label_2
_geom_bond_distance
_geom_bond_site_symmetry_2
_ccdc_geom_bond_type
V1     Er31   12.910   1_554 S
V1     Er37   12.910   1_545 S
V1     Er27   12.910   1_545 S
V1     Er34   12.910   .     S
V2     Er32   12.910   1_545 S
V2     Er36   12.910   .     S
V2     Er25   12.910   1_556 S
V2     Er38   12.910   1_545 S
V3     Er26   12.910   .     S
V3     Er35   12.910   .     S
V3     Er29   12.910   1_554 S
V3     Er39   12.910   .     S
V4     Er30   12.910   1_556 S
V4     Er33   12.910   .     S
V4     Er28   12.910   .     S
V4     Er40   12.910   .     S
V5     Er30   12.910   1_455 S
V5     Er36   12.910   1_554 S
V5     Er29   12.910   1_554 S
V5     Er34   12.910   .     S
V6     Er31   12.910   1_554 S
V6     Er35   12.910   .     S
V6     Er25   12.910   1_655 S
V6     Er40   12.910   1_554 S
V7     Er26   12.910   .     S
V7     Er37   12.910   .     S
V7     Er28   12.910   1_455 S
V7     Er38   12.910   .     S
V8     Er32   12.910   1_655 S
V8     Er33   12.910   .     S
V8     Er27   12.910   .     S
V8     Er39   12.910   .     S
V9     Er32   12.910   1_545 S
V9     Er35   12.910   1_455 S
V9     Er28   12.910   1_455 S
V9     Er34   12.910   .     S
V10    Er30   12.910   1_455 S
V10    Er37   12.910   .     S
V10    Er25   12.910   1_565 S
V10    Er39   12.910   1_455 S
V11    Er26   12.910   .     S
V11    Er36   12.910   .     S
V11    Er27   12.910   1_545 S
V11    Er40   12.910   .     S
V12    Er31   12.910   1_565 S
V12    Er33   12.910   .     S
V12    Er29   12.910   .     S
V12    Er38   12.910   .     S
V13    Er28   12.910   .     S
V13    Er37   12.910   .     S
V13    Er26   12.910   1_554 S
V13    Er38   12.910   1_654 S
V14    Er29   12.910   .     S
V14    Er36   12.910   1_655 S
V14    Er30   12.910   .     S
V14    Er34   12.910   .     S
V15    Er27   12.910   1_554 S
V15    Er33   12.910   1_454 S
V15    Er32   12.910   .     S
V15    Er39   12.910   .     S
V16    Er25   12.910   .     S
V16    Er35   12.910   .     S
V16    Er31   12.910   .     S
V16    Er40   12.910   1_455 S
V17    Er25   12.910   .     S
V17    Er36   12.910   .     S
V17    Er32   12.910   .     S
V17    Er38   12.910   1_554 S
V18    Er28   12.910   1_545 S
V18    Er33   12.910   1_544 S
V18    Er30   12.910   .     S
V18    Er40   12.910   .     S
V19    Er27   12.910   .     S
V19    Er37   12.910   1_556 S
V19    Er31   12.910   .     S
V19    Er34   12.910   .     S
V20    Er29   12.910   .     S
V20    Er35   12.910   .     S
V20    Er26   12.910   1_545 S
V20    Er39   12.910   1_546 S
V21    Er29   12.910   1_455 S
V21    Er33   12.910   1_445 S
V21    Er31   12.910   .     S
V21    Er38   12.910   .     S
V22    Er25   12.910   .     S
V22    Er37   12.910   .     S
V22    Er30   12.910   .     S
V22    Er39   12.910   1_545 S
V23    Er27   12.910   .     S
V23    Er36   12.910   .     S
V23    Er26   12.910   1_455 S
V23    Er40   12.910   1_465 S
V24    Er28   12.910   .     S
V24    Er35   12.910   1_565 S
V24    Er32   12.910   .     S
V24    Er34   12.910   .     S
Er25   V2     12.910   1_554 S
Er25   V10    12.910   1_545 S
Er25   V6     12.910   1_455 S
Er26   V13    12.910   1_556 S
Er26   V23    12.910   1_655 S
Er26   V20    12.910   1_565 S
Er27   V15    12.910   1_556 S
Er27   V1     12.910   1_565 S
Er27   V11    12.910   1_565 S
Er28   V18    12.910   1_565 S
Er28   V9     12.910   1_655 S
Er28   V7     12.910   1_655 S
Er29   V21    12.910   1_655 S
Er29   V3     12.910   1_556 S
Er29   V5     12.910   1_556 S
Er30   V4     12.910   1_554 S
Er30   V10    12.910   1_655 S
Er30   V5     12.910   1_655 S
Er31   V1     12.910   1_556 S
Er31   V12    12.910   1_545 S
Er31   V6     12.910   1_556 S
Er32   V2     12.910   1_565 S
Er32   V9     12.910   1_565 S
Er32   V8     12.910   1_455 S
Er33   V18    12.910   1_566 S
Er33   V21    12.910   1_665 S
Er33   V15    12.910   1_656 S
Er35   V9     12.910   1_655 S
Er35   V24    12.910   1_545 S
Er36   V5     12.910   1_556 S
Er36   V14    12.910   1_455 S
Er37   V1     12.910   1_565 S
Er37   V19    12.910   1_554 S
Er38   V17    12.910   1_556 S
Er38   V13    12.910   1_456 S
Er38   V2     12.910   1_565 S
Er39   V20    12.910   1_564 S
Er39   V22    12.910   1_565 S
Er39   V10    12.910   1_655 S
Er40   V23    12.910   1_645 S
Er40   V16    12.910   1_655 S
Er40   V6     12.910   1_556 S
