data_iac
_audit_creation_date              2019-08-20
_audit_creation_method            'Materials Studio'
_symmetry_space_group_name_H-M    'P1'
_symmetry_Int_Tables_number       1
_symmetry_cell_setting            triclinic
loop_
_symmetry_equiv_pos_as_xyz
  x,y,z
_cell_length_a                    35.7777
_cell_length_b                    35.7777
_cell_length_c                    35.7777
_cell_angle_alpha                 90.0000
_cell_angle_beta                  90.0000
_cell_angle_gamma                 90.0000
loop_
_atom_site_label
_atom_site_type_symbol
_atom_site_fract_x
_atom_site_fract_y
_atom_site_fract_z
_atom_site_U_iso_or_equiv
_atom_site_adp_type
_atom_site_occupancy
V1     V     0.12500   0.00000   0.25000   0.00000  Uiso   1.00
V2     V     0.37500   0.00000   0.75000   0.00000  Uiso   1.00
V3     V     0.87500   0.50000   0.25000   0.00000  Uiso   1.00
V4     V     0.62500   0.50000   0.75000   0.00000  Uiso   1.00
V5     V     0.25000   0.12500   0.00000   0.00000  Uiso   1.00
V6     V     0.75000   0.37500   0.00000   0.00000  Uiso   1.00
V7     V     0.25000   0.87500   0.50000   0.00000  Uiso   1.00
V8     V     0.75000   0.62500   0.50000   0.00000  Uiso   1.00
V9     V     0.00000   0.25000   0.12500   0.00000  Uiso   1.00
V10    V     0.00000   0.75000   0.37500   0.00000  Uiso   1.00
V11    V     0.50000   0.25000   0.87500   0.00000  Uiso   1.00
V12    V     0.50000   0.75000   0.62500   0.00000  Uiso   1.00
V13    V     0.87500   0.00000   0.75000   0.00000  Uiso   1.00
V14    V     0.37500   0.50000   0.25000   0.00000  Uiso   1.00
V15    V     0.62500   0.00000   0.25000   0.00000  Uiso   1.00
V16    V     0.12500   0.50000   0.75000   0.00000  Uiso   1.00
V17    V     0.75000   0.87500   0.00000   0.00000  Uiso   1.00
V18    V     0.25000   0.37500   0.50000   0.00000  Uiso   1.00
V19    V     0.25000   0.62500   0.00000   0.00000  Uiso   1.00
V20    V     0.75000   0.12500   0.50000   0.00000  Uiso   1.00
V21    V     0.00000   0.75000   0.87500   0.00000  Uiso   1.00
V22    V     0.50000   0.25000   0.37500   0.00000  Uiso   1.00
V23    V     0.00000   0.25000   0.62500   0.00000  Uiso   1.00
V24    V     0.50000   0.75000   0.12500   0.00000  Uiso   1.00
Er25   Er    0.00000   0.00000   0.00000   0.00000  Uiso   1.00
Er26   Er    0.50000   0.50000   0.50000   0.00000  Uiso   1.00
Er27   Er    0.50000   0.00000   0.50000   0.00000  Uiso   1.00
Er28   Er    0.00000   0.50000   0.00000   0.00000  Uiso   1.00
Er29   Er    0.00000   0.50000   0.50000   0.00000  Uiso   1.00
Er30   Er    0.50000   0.00000   0.00000   0.00000  Uiso   1.00
Er31   Er    0.50000   0.50000   0.00000   0.00000  Uiso   1.00
Er32   Er    0.00000   0.00000   0.50000   0.00000  Uiso   1.00
Er33   Er    0.75000   0.25000   0.25000   0.00000  Uiso   1.00
Er34   Er    0.75000   0.75000   0.75000   0.00000  Uiso   1.00
Er35   Er    0.25000   0.25000   0.75000   0.00000  Uiso   1.00
Er36   Er    0.25000   0.75000   0.25000   0.00000  Uiso   1.00
Er37   Er    0.25000   0.75000   0.75000   0.00000  Uiso   1.00
Er38   Er    0.25000   0.25000   0.25000   0.00000  Uiso   1.00
Er39   Er    0.75000   0.75000   0.25000   0.00000  Uiso   1.00
Er40   Er    0.75000   0.25000   0.75000   0.00000  Uiso   1.00
loop_
_geom_bond_atom_site_label_1
_geom_bond_atom_site_label_2
_geom_bond_distance
_geom_bond_site_symmetry_2
_ccdc_geom_bond_type
V1     Er38   10.000   .     S
V1     Er32   10.000   .     S
V1     Er36   10.000   1_545 S
V1     Er25   10.000   .     S
V2     Er37   10.000   1_545 S
V2     Er30   10.000   1_556 S
V2     Er35   10.000   .     S
V2     Er27   10.000   .     S
V3     Er39   10.000   .     S
V3     Er28   10.000   1_655 S
V3     Er33   10.000   .     S
V3     Er29   10.000   1_655 S
V4     Er40   10.000   .     S
V4     Er26   10.000   .     S
V4     Er34   10.000   .     S
V4     Er31   10.000   1_556 S
V5     Er38   10.000   .     S
V5     Er30   10.000   .     S
V5     Er35   10.000   1_554 S
V5     Er25   10.000   .     S
V6     Er40   10.000   1_554 S
V6     Er28   10.000   1_655 S
V6     Er33   10.000   .     S
V6     Er31   10.000   .     S
V7     Er37   10.000   .     S
V7     Er32   10.000   1_565 S
V7     Er36   10.000   .     S
V7     Er27   10.000   1_565 S
V8     Er39   10.000   .     S
V8     Er26   10.000   .     S
V8     Er34   10.000   .     S
V8     Er29   10.000   1_655 S
V9     Er38   10.000   .     S
V9     Er28   10.000   .     S
V9     Er33   10.000   1_455 S
V9     Er25   10.000   .     S
V10    Er39   10.000   1_455 S
V10    Er32   10.000   1_565 S
V10    Er36   10.000   .     S
V10    Er29   10.000   .     S
V11    Er40   10.000   .     S
V11    Er30   10.000   1_556 S
V11    Er35   10.000   .     S
V11    Er31   10.000   1_556 S
V12    Er37   10.000   .     S
V12    Er26   10.000   .     S
V12    Er34   10.000   .     S
V12    Er27   10.000   1_565 S
V13    Er34   10.000   1_545 S
V13    Er32   10.000   1_655 S
V13    Er40   10.000   .     S
V13    Er25   10.000   1_656 S
V14    Er36   10.000   .     S
V14    Er26   10.000   .     S
V14    Er38   10.000   .     S
V14    Er31   10.000   .     S
V15    Er33   10.000   .     S
V15    Er30   10.000   .     S
V15    Er39   10.000   1_545 S
V15    Er27   10.000   .     S
V16    Er35   10.000   .     S
V16    Er28   10.000   1_556 S
V16    Er37   10.000   .     S
V16    Er29   10.000   .     S
V17    Er34   10.000   1_554 S
V17    Er30   10.000   1_565 S
V17    Er39   10.000   .     S
V17    Er25   10.000   1_665 S
V18    Er35   10.000   .     S
V18    Er26   10.000   .     S
V18    Er38   10.000   .     S
V18    Er29   10.000   .     S
V19    Er36   10.000   .     S
V19    Er28   10.000   .     S
V19    Er37   10.000   1_554 S
V19    Er31   10.000   .     S
V20    Er33   10.000   .     S
V20    Er32   10.000   1_655 S
V20    Er40   10.000   .     S
V20    Er27   10.000   .     S
V21    Er34   10.000   1_455 S
V21    Er28   10.000   1_556 S
V21    Er37   10.000   .     S
V21    Er25   10.000   1_566 S
V22    Er33   10.000   .     S
V22    Er26   10.000   .     S
V22    Er38   10.000   .     S
V22    Er27   10.000   .     S
V23    Er35   10.000   .     S
V23    Er32   10.000   .     S
V23    Er40   10.000   1_455 S
V23    Er29   10.000   .     S
V24    Er36   10.000   .     S
V24    Er30   10.000   1_565 S
V24    Er39   10.000   .     S
V24    Er31   10.000   .     S
Er25   V21    10.000   1_544 S
Er25   V13    10.000   1_454 S
Er25   V17    10.000   1_445 S
Er27   V12    10.000   1_545 S
Er27   V7     10.000   1_545 S
Er28   V21    10.000   1_554 S
Er28   V16    10.000   1_554 S
Er28   V3     10.000   1_455 S
Er28   V6     10.000   1_455 S
Er29   V3     10.000   1_455 S
Er29   V8     10.000   1_455 S
Er30   V24    10.000   1_545 S
Er30   V17    10.000   1_545 S
Er30   V11    10.000   1_554 S
Er30   V2     10.000   1_554 S
Er31   V11    10.000   1_554 S
Er31   V4     10.000   1_554 S
Er32   V13    10.000   1_455 S
Er32   V20    10.000   1_455 S
Er32   V10    10.000   1_545 S
Er32   V7     10.000   1_545 S
Er33   V9     10.000   1_655 S
Er34   V21    10.000   1_655 S
Er34   V17    10.000   1_556 S
Er34   V13    10.000   1_565 S
Er35   V5     10.000   1_556 S
Er36   V1     10.000   1_565 S
Er37   V2     10.000   1_565 S
Er37   V19    10.000   1_556 S
Er39   V10    10.000   1_655 S
Er39   V15    10.000   1_565 S
Er40   V6     10.000   1_556 S
Er40   V23    10.000   1_655 S
