data_ibd
_audit_creation_date              2019-09-07
_audit_creation_method            'Materials Studio'
_symmetry_space_group_name_H-M    'P1'
_symmetry_Int_Tables_number       1
_symmetry_cell_setting            triclinic
loop_
_symmetry_equiv_pos_as_xyz
  x,y,z
_cell_length_a                    32.6600
_cell_length_b                    32.6600
_cell_length_c                    32.6600
_cell_angle_alpha                 90.0000
_cell_angle_beta                  90.0000
_cell_angle_gamma                 90.0000
loop_
_atom_site_label
_atom_site_type_symbol
_atom_site_fract_x
_atom_site_fract_y
_atom_site_fract_z
_atom_site_U_iso_or_equiv
_atom_site_adp_type
_atom_site_occupancy
V1     V     0.37500   0.00000   0.25000   0.00000  Uiso   1.00
V2     V     0.12500   0.00000   0.75000   0.00000  Uiso   1.00
V3     V     0.62500   0.50000   0.25000   0.00000  Uiso   1.00
V4     V     0.87500   0.50000   0.75000   0.00000  Uiso   1.00
V5     V     0.25000   0.37500   0.00000   0.00000  Uiso   1.00
V6     V     0.75000   0.12500   0.00000   0.00000  Uiso   1.00
V7     V     0.25000   0.62500   0.50000   0.00000  Uiso   1.00
V8     V     0.75000   0.87500   0.50000   0.00000  Uiso   1.00
V9     V     0.00000   0.25000   0.37500   0.00000  Uiso   1.00
V10    V     0.00000   0.75000   0.12500   0.00000  Uiso   1.00
V11    V     0.50000   0.25000   0.62500   0.00000  Uiso   1.00
V12    V     0.50000   0.75000   0.87500   0.00000  Uiso   1.00
V13    V     0.75000   0.62500   0.00000   0.00000  Uiso   1.00
V14    V     0.75000   0.37500   0.50000   0.00000  Uiso   1.00
V15    V     0.25000   0.87500   0.00000   0.00000  Uiso   1.00
V16    V     0.25000   0.12500   0.50000   0.00000  Uiso   1.00
V17    V     0.12500   0.50000   0.25000   0.00000  Uiso   1.00
V18    V     0.87500   0.00000   0.25000   0.00000  Uiso   1.00
V19    V     0.37500   0.50000   0.75000   0.00000  Uiso   1.00
V20    V     0.62500   0.00000   0.75000   0.00000  Uiso   1.00
V21    V     0.00000   0.25000   0.87500   0.00000  Uiso   1.00
V22    V     0.50000   0.25000   0.12500   0.00000  Uiso   1.00
V23    V     0.00000   0.75000   0.62500   0.00000  Uiso   1.00
V24    V     0.50000   0.75000   0.37500   0.00000  Uiso   1.00
Er25   Er    0.12500   0.12500   0.12500   0.00000  Uiso   1.00
Er26   Er    0.62500   0.62500   0.62500   0.00000  Uiso   1.00
Er27   Er    0.37500   0.87500   0.62500   0.00000  Uiso   1.00
Er28   Er    0.87500   0.62500   0.37500   0.00000  Uiso   1.00
Er29   Er    0.62500   0.37500   0.87500   0.00000  Uiso   1.00
Er30   Er    0.87500   0.37500   0.12500   0.00000  Uiso   1.00
Er31   Er    0.37500   0.12500   0.87500   0.00000  Uiso   1.00
Er32   Er    0.12500   0.87500   0.37500   0.00000  Uiso   1.00
Er33   Er    0.87500   0.87500   0.87500   0.00000  Uiso   1.00
Er34   Er    0.37500   0.37500   0.37500   0.00000  Uiso   1.00
Er35   Er    0.62500   0.12500   0.37500   0.00000  Uiso   1.00
Er36   Er    0.12500   0.37500   0.62500   0.00000  Uiso   1.00
Er37   Er    0.37500   0.62500   0.12500   0.00000  Uiso   1.00
Er38   Er    0.12500   0.62500   0.87500   0.00000  Uiso   1.00
Er39   Er    0.62500   0.87500   0.12500   0.00000  Uiso   1.00
Er40   Er    0.87500   0.12500   0.62500   0.00000  Uiso   1.00
loop_
_geom_bond_atom_site_label_1
_geom_bond_atom_site_label_2
_geom_bond_distance
_geom_bond_site_symmetry_2
_ccdc_geom_bond_type
V1     Er32   10.000   1_545 S
V1     Er35   10.000   .     S
V1     Er25   10.000   .     S
V1     Er39   10.000   1_545 S
V2     Er31   10.000   .     S
V2     Er33   10.000   1_445 S
V2     Er27   10.000   1_545 S
V2     Er40   10.000   1_455 S
V3     Er30   10.000   .     S
V3     Er37   10.000   .     S
V3     Er28   10.000   .     S
V3     Er34   10.000   .     S
V4     Er26   10.000   .     S
V4     Er36   10.000   1_655 S
V4     Er29   10.000   .     S
V4     Er38   10.000   1_655 S
V5     Er31   10.000   1_554 S
V5     Er37   10.000   .     S
V5     Er25   10.000   .     S
V5     Er38   10.000   1_554 S
V6     Er30   10.000   .     S
V6     Er33   10.000   1_544 S
V6     Er29   10.000   1_554 S
V6     Er39   10.000   1_545 S
V7     Er32   10.000   .     S
V7     Er36   10.000   .     S
V7     Er27   10.000   .     S
V7     Er34   10.000   .     S
V8     Er26   10.000   .     S
V8     Er35   10.000   1_565 S
V8     Er28   10.000   .     S
V8     Er40   10.000   1_565 S
V9     Er30   10.000   1_455 S
V9     Er36   10.000   .     S
V9     Er25   10.000   .     S
V9     Er40   10.000   1_455 S
V10    Er32   10.000   .     S
V10    Er33   10.000   1_454 S
V10    Er28   10.000   1_455 S
V10    Er38   10.000   1_554 S
V11    Er31   10.000   .     S
V11    Er35   10.000   .     S
V11    Er29   10.000   .     S
V11    Er34   10.000   .     S
V12    Er26   10.000   .     S
V12    Er37   10.000   1_556 S
V12    Er27   10.000   .     S
V12    Er39   10.000   1_556 S
V13    Er29   10.000   1_554 S
V13    Er33   10.000   1_554 S
V13    Er30   10.000   .     S
V13    Er39   10.000   .     S
V14    Er28   10.000   .     S
V14    Er35   10.000   .     S
V14    Er26   10.000   .     S
V14    Er40   10.000   .     S
V15    Er25   10.000   1_565 S
V15    Er37   10.000   .     S
V15    Er31   10.000   1_564 S
V15    Er38   10.000   1_554 S
V16    Er27   10.000   1_545 S
V16    Er36   10.000   .     S
V16    Er32   10.000   1_545 S
V16    Er34   10.000   .     S
V17    Er28   10.000   1_455 S
V17    Er37   10.000   .     S
V17    Er30   10.000   1_455 S
V17    Er34   10.000   .     S
V18    Er25   10.000   1_655 S
V18    Er35   10.000   .     S
V18    Er32   10.000   1_645 S
V18    Er39   10.000   1_545 S
V19    Er29   10.000   .     S
V19    Er36   10.000   .     S
V19    Er26   10.000   .     S
V19    Er38   10.000   .     S
V20    Er27   10.000   1_545 S
V20    Er33   10.000   1_545 S
V20    Er31   10.000   .     S
V20    Er40   10.000   .     S
V21    Er25   10.000   1_556 S
V21    Er36   10.000   .     S
V21    Er30   10.000   1_456 S
V21    Er40   10.000   1_455 S
V22    Er29   10.000   1_554 S
V22    Er35   10.000   .     S
V22    Er31   10.000   1_554 S
V22    Er34   10.000   .     S
V23    Er28   10.000   1_455 S
V23    Er33   10.000   1_455 S
V23    Er32   10.000   .     S
V23    Er38   10.000   .     S
V24    Er27   10.000   .     S
V24    Er37   10.000   .     S
V24    Er26   10.000   .     S
V24    Er39   10.000   .     S
Er25   V18    10.000   1_455 S
Er25   V15    10.000   1_545 S
Er25   V21    10.000   1_554 S
Er27   V20    10.000   1_565 S
Er27   V16    10.000   1_565 S
Er27   V2     10.000   1_565 S
Er28   V17    10.000   1_655 S
Er28   V23    10.000   1_655 S
Er28   V10    10.000   1_655 S
Er29   V13    10.000   1_556 S
Er29   V22    10.000   1_556 S
Er29   V6     10.000   1_556 S
Er30   V9     10.000   1_655 S
Er30   V17    10.000   1_655 S
Er30   V21    10.000   1_654 S
Er31   V5     10.000   1_556 S
Er31   V15    10.000   1_546 S
Er31   V22    10.000   1_556 S
Er32   V1     10.000   1_565 S
Er32   V18    10.000   1_465 S
Er32   V16    10.000   1_565 S
Er33   V2     10.000   1_665 S
Er33   V6     10.000   1_566 S
Er33   V10    10.000   1_656 S
Er33   V13    10.000   1_556 S
Er33   V20    10.000   1_565 S
Er33   V23    10.000   1_655 S
Er35   V8     10.000   1_545 S
Er36   V4     10.000   1_455 S
Er37   V12    10.000   1_554 S
Er38   V15    10.000   1_556 S
Er38   V4     10.000   1_455 S
Er38   V5     10.000   1_556 S
Er38   V10    10.000   1_556 S
Er39   V18    10.000   1_565 S
Er39   V1     10.000   1_565 S
Er39   V6     10.000   1_565 S
Er39   V12    10.000   1_554 S
Er40   V21    10.000   1_655 S
Er40   V2     10.000   1_655 S
Er40   V8     10.000   1_545 S
Er40   V9     10.000   1_655 S
