data_icd
_audit_creation_date              2019-08-20
_audit_creation_method            'Materials Studio'
_symmetry_space_group_name_H-M    'P1'
_symmetry_Int_Tables_number       1
_symmetry_cell_setting            triclinic
loop_
_symmetry_equiv_pos_as_xyz
  x,y,z
_cell_length_a                    32.6600
_cell_length_b                    32.6600
_cell_length_c                    32.6600
_cell_angle_alpha                 90.0000
_cell_angle_beta                  90.0000
_cell_angle_gamma                 90.0000
loop_
_atom_site_label
_atom_site_type_symbol
_atom_site_fract_x
_atom_site_fract_y
_atom_site_fract_z
_atom_site_U_iso_or_equiv
_atom_site_adp_type
_atom_site_occupancy
V1     V     0.00000   0.25000   0.12500   0.00000  Uiso   1.00
V2     V     0.50000   0.75000   0.62500   0.00000  Uiso   1.00
V3     V     0.00000   0.75000   0.37500   0.00000  Uiso   1.00
V4     V     0.50000   0.25000   0.87500   0.00000  Uiso   1.00
V5     V     0.12500   0.00000   0.25000   0.00000  Uiso   1.00
V6     V     0.62500   0.50000   0.75000   0.00000  Uiso   1.00
V7     V     0.37500   0.00000   0.75000   0.00000  Uiso   1.00
V8     V     0.87500   0.50000   0.25000   0.00000  Uiso   1.00
V9     V     0.25000   0.12500   0.00000   0.00000  Uiso   1.00
V10    V     0.75000   0.62500   0.50000   0.00000  Uiso   1.00
V11    V     0.75000   0.37500   0.00000   0.00000  Uiso   1.00
V12    V     0.25000   0.87500   0.50000   0.00000  Uiso   1.00
V13    V     0.00000   0.75000   0.87500   0.00000  Uiso   1.00
V14    V     0.50000   0.25000   0.37500   0.00000  Uiso   1.00
V15    V     0.00000   0.25000   0.62500   0.00000  Uiso   1.00
V16    V     0.50000   0.75000   0.12500   0.00000  Uiso   1.00
V17    V     0.87500   0.00000   0.75000   0.00000  Uiso   1.00
V18    V     0.37500   0.50000   0.25000   0.00000  Uiso   1.00
V19    V     0.62500   0.00000   0.25000   0.00000  Uiso   1.00
V20    V     0.12500   0.50000   0.75000   0.00000  Uiso   1.00
V21    V     0.75000   0.87500   0.00000   0.00000  Uiso   1.00
V22    V     0.25000   0.37500   0.50000   0.00000  Uiso   1.00
V23    V     0.25000   0.62500   0.00000   0.00000  Uiso   1.00
V24    V     0.75000   0.12500   0.50000   0.00000  Uiso   1.00
Er25   Er    0.00000   0.25000   0.37500   0.00000  Uiso   1.00
Er26   Er    0.50000   0.75000   0.87500   0.00000  Uiso   1.00
Er27   Er    0.00000   0.75000   0.12500   0.00000  Uiso   1.00
Er28   Er    0.50000   0.25000   0.62500   0.00000  Uiso   1.00
Er29   Er    0.37500   0.00000   0.25000   0.00000  Uiso   1.00
Er30   Er    0.87500   0.50000   0.75000   0.00000  Uiso   1.00
Er31   Er    0.12500   0.00000   0.75000   0.00000  Uiso   1.00
Er32   Er    0.62500   0.50000   0.25000   0.00000  Uiso   1.00
Er33   Er    0.25000   0.37500   0.00000   0.00000  Uiso   1.00
Er34   Er    0.75000   0.87500   0.50000   0.00000  Uiso   1.00
Er35   Er    0.75000   0.12500   0.00000   0.00000  Uiso   1.00
Er36   Er    0.25000   0.62500   0.50000   0.00000  Uiso   1.00
Er37   Er    0.00000   0.25000   0.87500   0.00000  Uiso   1.00
Er38   Er    0.50000   0.75000   0.37500   0.00000  Uiso   1.00
Er39   Er    0.50000   0.25000   0.12500   0.00000  Uiso   1.00
Er40   Er    0.00000   0.75000   0.62500   0.00000  Uiso   1.00
Er41   Er    0.75000   0.62500   0.00000   0.00000  Uiso   1.00
Er42   Er    0.25000   0.12500   0.50000   0.00000  Uiso   1.00
Er43   Er    0.75000   0.37500   0.50000   0.00000  Uiso   1.00
Er44   Er    0.25000   0.87500   0.00000   0.00000  Uiso   1.00
Er45   Er    0.12500   0.50000   0.25000   0.00000  Uiso   1.00
Er46   Er    0.62500   0.00000   0.75000   0.00000  Uiso   1.00
Er47   Er    0.87500   0.00000   0.25000   0.00000  Uiso   1.00
Er48   Er    0.37500   0.50000   0.75000   0.00000  Uiso   1.00
loop_
_geom_bond_atom_site_label_1
_geom_bond_atom_site_label_2
_geom_bond_distance
_geom_bond_site_symmetry_2
_ccdc_geom_bond_type
V1     Er45   10.000   .     S
V1     Er33   10.000   .     S
V1     Er47   10.000   1_455 S
V1     Er35   10.000   1_455 S
V2     Er48   10.000   .     S
V2     Er36   10.000   .     S
V2     Er46   10.000   1_565 S
V2     Er34   10.000   .     S
V3     Er47   10.000   1_465 S
V3     Er34   10.000   1_455 S
V3     Er45   10.000   .     S
V3     Er36   10.000   .     S
V4     Er46   10.000   .     S
V4     Er35   10.000   1_556 S
V4     Er48   10.000   .     S
V4     Er33   10.000   1_556 S
V5     Er42   10.000   .     S
V5     Er25   10.000   .     S
V5     Er44   10.000   1_545 S
V5     Er27   10.000   1_545 S
V6     Er43   10.000   .     S
V6     Er28   10.000   .     S
V6     Er41   10.000   1_556 S
V6     Er26   10.000   .     S
V7     Er44   10.000   1_546 S
V7     Er26   10.000   1_545 S
V7     Er42   10.000   .     S
V7     Er28   10.000   .     S
V8     Er41   10.000   .     S
V8     Er27   10.000   1_655 S
V8     Er43   10.000   .     S
V8     Er25   10.000   1_655 S
V9     Er39   10.000   .     S
V9     Er29   10.000   .     S
V9     Er37   10.000   1_554 S
V9     Er31   10.000   1_554 S
V10    Er38   10.000   .     S
V10    Er32   10.000   .     S
V10    Er40   10.000   1_655 S
V10    Er30   10.000   .     S
V11    Er37   10.000   1_654 S
V11    Er30   10.000   1_554 S
V11    Er39   10.000   .     S
V11    Er32   10.000   .     S
V12    Er40   10.000   .     S
V12    Er31   10.000   1_565 S
V12    Er38   10.000   .     S
V12    Er29   10.000   1_565 S
V13    Er30   10.000   1_455 S
V13    Er41   10.000   1_456 S
V13    Er31   10.000   1_565 S
V13    Er44   10.000   1_556 S
V14    Er32   10.000   .     S
V14    Er43   10.000   .     S
V14    Er29   10.000   .     S
V14    Er42   10.000   .     S
V15    Er31   10.000   .     S
V15    Er42   10.000   .     S
V15    Er30   10.000   1_455 S
V15    Er43   10.000   1_455 S
V16    Er29   10.000   1_565 S
V16    Er44   10.000   .     S
V16    Er32   10.000   .     S
V16    Er41   10.000   .     S
V17    Er34   10.000   1_545 S
V17    Er40   10.000   1_645 S
V17    Er35   10.000   1_556 S
V17    Er37   10.000   1_655 S
V18    Er36   10.000   .     S
V18    Er38   10.000   .     S
V18    Er33   10.000   .     S
V18    Er39   10.000   .     S
V19    Er35   10.000   .     S
V19    Er39   10.000   .     S
V19    Er34   10.000   1_545 S
V19    Er38   10.000   1_545 S
V20    Er33   10.000   1_556 S
V20    Er37   10.000   .     S
V20    Er36   10.000   .     S
V20    Er40   10.000   .     S
V21    Er26   10.000   1_554 S
V21    Er46   10.000   1_564 S
V21    Er27   10.000   1_655 S
V21    Er47   10.000   1_565 S
V22    Er28   10.000   .     S
V22    Er48   10.000   .     S
V22    Er25   10.000   .     S
V22    Er45   10.000   .     S
V23    Er27   10.000   .     S
V23    Er45   10.000   .     S
V23    Er26   10.000   1_554 S
V23    Er48   10.000   1_554 S
V24    Er25   10.000   1_655 S
V24    Er47   10.000   .     S
V24    Er28   10.000   .     S
V24    Er46   10.000   .     S
Er25   V24    10.000   1_455 S
Er25   V8     10.000   1_455 S
Er26   V21    10.000   1_556 S
Er26   V23    10.000   1_556 S
Er26   V7     10.000   1_565 S
Er27   V5     10.000   1_565 S
Er27   V21    10.000   1_455 S
Er27   V8     10.000   1_455 S
Er29   V16    10.000   1_545 S
Er29   V12    10.000   1_545 S
Er30   V13    10.000   1_655 S
Er30   V15    10.000   1_655 S
Er30   V11    10.000   1_556 S
Er31   V9     10.000   1_556 S
Er31   V13    10.000   1_545 S
Er31   V12    10.000   1_545 S
Er33   V20    10.000   1_554 S
Er33   V4     10.000   1_554 S
Er34   V17    10.000   1_565 S
Er34   V19    10.000   1_565 S
Er34   V3     10.000   1_655 S
Er35   V1     10.000   1_655 S
Er35   V17    10.000   1_554 S
Er35   V4     10.000   1_554 S
Er37   V17    10.000   1_455 S
Er37   V9     10.000   1_556 S
Er37   V11    10.000   1_456 S
Er38   V19    10.000   1_565 S
Er40   V10    10.000   1_455 S
Er40   V17    10.000   1_465 S
Er41   V6     10.000   1_554 S
Er41   V13    10.000   1_654 S
Er43   V15    10.000   1_655 S
Er44   V13    10.000   1_554 S
Er44   V5     10.000   1_565 S
Er44   V7     10.000   1_564 S
Er46   V2     10.000   1_545 S
Er46   V21    10.000   1_546 S
Er47   V21    10.000   1_545 S
Er47   V1     10.000   1_655 S
Er47   V3     10.000   1_645 S
Er48   V23    10.000   1_556 S
