data_idp
_audit_creation_date              2019-09-09
_audit_creation_method            'Materials Studio'
_symmetry_space_group_name_H-M    'P1'
_symmetry_Int_Tables_number       1
_symmetry_cell_setting            triclinic
loop_
_symmetry_equiv_pos_as_xyz
  x,y,z
_cell_length_a                    37.7130
_cell_length_b                    37.7130
_cell_length_c                    37.7130
_cell_angle_alpha                 90.0000
_cell_angle_beta                  90.0000
_cell_angle_gamma                 90.0000
loop_
_atom_site_label
_atom_site_type_symbol
_atom_site_fract_x
_atom_site_fract_y
_atom_site_fract_z
_atom_site_U_iso_or_equiv
_atom_site_adp_type
_atom_site_occupancy
V1     V     0.25000   0.25000   0.25000   0.00000  Uiso   1.00
V2     V     0.75000   0.75000   0.25000   0.00000  Uiso   1.00
V3     V     0.75000   0.25000   0.75000   0.00000  Uiso   1.00
V4     V     0.25000   0.75000   0.75000   0.00000  Uiso   1.00
V5     V     0.75000   0.75000   0.75000   0.00000  Uiso   1.00
V6     V     0.25000   0.25000   0.75000   0.00000  Uiso   1.00
V7     V     0.25000   0.75000   0.25000   0.00000  Uiso   1.00
V8     V     0.75000   0.25000   0.25000   0.00000  Uiso   1.00
Er9    Er    0.00000   0.00000   0.50000   0.00000  Uiso   1.00
Er10   Er    0.50000   0.50000   0.00000   0.00000  Uiso   1.00
Er11   Er    0.50000   0.00000   0.00000   0.00000  Uiso   1.00
Er12   Er    0.00000   0.50000   0.50000   0.00000  Uiso   1.00
Er13   Er    0.00000   0.50000   0.00000   0.00000  Uiso   1.00
Er14   Er    0.50000   0.00000   0.50000   0.00000  Uiso   1.00
Ti15   Ti    0.00000   0.31250   0.18750   0.00000  Uiso   1.00
Ti16   Ti    0.50000   0.81250   0.68750   0.00000  Uiso   1.00
Ti17   Ti    0.00000   0.68750   0.18750   0.00000  Uiso   1.00
Ti18   Ti    0.50000   0.18750   0.68750   0.00000  Uiso   1.00
Ti19   Ti    0.00000   0.31250   0.81250   0.00000  Uiso   1.00
Ti20   Ti    0.50000   0.81250   0.31250   0.00000  Uiso   1.00
Ti21   Ti    0.00000   0.68750   0.81250   0.00000  Uiso   1.00
Ti22   Ti    0.50000   0.18750   0.31250   0.00000  Uiso   1.00
Ti23   Ti    0.18750   0.00000   0.31250   0.00000  Uiso   1.00
Ti24   Ti    0.68750   0.50000   0.81250   0.00000  Uiso   1.00
Ti25   Ti    0.18750   0.00000   0.68750   0.00000  Uiso   1.00
Ti26   Ti    0.68750   0.50000   0.18750   0.00000  Uiso   1.00
Ti27   Ti    0.81250   0.00000   0.31250   0.00000  Uiso   1.00
Ti28   Ti    0.31250   0.50000   0.81250   0.00000  Uiso   1.00
Ti29   Ti    0.81250   0.00000   0.68750   0.00000  Uiso   1.00
Ti30   Ti    0.31250   0.50000   0.18750   0.00000  Uiso   1.00
Ti31   Ti    0.31250   0.18750   0.00000   0.00000  Uiso   1.00
Ti32   Ti    0.81250   0.68750   0.50000   0.00000  Uiso   1.00
Ti33   Ti    0.68750   0.18750   0.00000   0.00000  Uiso   1.00
Ti34   Ti    0.18750   0.68750   0.50000   0.00000  Uiso   1.00
Ti35   Ti    0.31250   0.81250   0.00000   0.00000  Uiso   1.00
Ti36   Ti    0.81250   0.31250   0.50000   0.00000  Uiso   1.00
Ti37   Ti    0.68750   0.81250   0.00000   0.00000  Uiso   1.00
Ti38   Ti    0.18750   0.31250   0.50000   0.00000  Uiso   1.00
loop_
_geom_bond_atom_site_label_1
_geom_bond_atom_site_label_2
_geom_bond_distance
_geom_bond_site_symmetry_2
_ccdc_geom_bond_type
V1     Ti30   10.000   .     S
V1     Ti38   10.000   .     S
V1     Ti22   10.000   .     S
V1     Ti23   10.000   .     S
V1     Ti31   10.000   .     S
V1     Ti15   10.000   .     S
V2     Ti26   10.000   .     S
V2     Ti32   10.000   .     S
V2     Ti20   10.000   .     S
V2     Ti27   10.000   1_565 S
V2     Ti37   10.000   .     S
V2     Ti17   10.000   1_655 S
V3     Ti24   10.000   .     S
V3     Ti36   10.000   .     S
V3     Ti18   10.000   .     S
V3     Ti29   10.000   .     S
V3     Ti33   10.000   1_556 S
V3     Ti19   10.000   1_655 S
V4     Ti28   10.000   .     S
V4     Ti34   10.000   .     S
V4     Ti16   10.000   .     S
V4     Ti25   10.000   1_565 S
V4     Ti35   10.000   1_556 S
V4     Ti21   10.000   .     S
V5     Ti24   10.000   .     S
V5     Ti32   10.000   .     S
V5     Ti16   10.000   .     S
V5     Ti29   10.000   1_565 S
V5     Ti37   10.000   1_556 S
V5     Ti21   10.000   1_655 S
V6     Ti28   10.000   .     S
V6     Ti38   10.000   .     S
V6     Ti18   10.000   .     S
V6     Ti25   10.000   .     S
V6     Ti31   10.000   1_556 S
V6     Ti19   10.000   .     S
V7     Ti30   10.000   .     S
V7     Ti34   10.000   .     S
V7     Ti20   10.000   .     S
V7     Ti23   10.000   1_565 S
V7     Ti35   10.000   .     S
V7     Ti17   10.000   .     S
V8     Ti26   10.000   .     S
V8     Ti36   10.000   .     S
V8     Ti22   10.000   .     S
V8     Ti27   10.000   .     S
V8     Ti33   10.000   .     S
V8     Ti15   10.000   1_655 S
Er9    Ti27   10.000   1_455 S
Er9    Ti23   10.000   .     S
Er9    Ti25   10.000   .     S
Er9    Ti29   10.000   1_455 S
Er10   Ti28   10.000   1_554 S
Er10   Ti24   10.000   1_554 S
Er10   Ti26   10.000   .     S
Er10   Ti30   10.000   .     S
Er11   Ti35   10.000   1_545 S
Er11   Ti31   10.000   .     S
Er11   Ti33   10.000   .     S
Er11   Ti37   10.000   1_545 S
Er12   Ti36   10.000   1_455 S
Er12   Ti32   10.000   1_455 S
Er12   Ti34   10.000   .     S
Er12   Ti38   10.000   .     S
Er13   Ti19   10.000   1_554 S
Er13   Ti15   10.000   .     S
Er13   Ti17   10.000   .     S
Er13   Ti21   10.000   1_554 S
Er14   Ti20   10.000   1_545 S
Er14   Ti16   10.000   1_545 S
Er14   Ti18   10.000   .     S
Er14   Ti22   10.000   .     S
Ti15   V8     10.000   1_455 S
Ti16   Er14   10.000   1_565 S
Ti17   V2     10.000   1_455 S
Ti19   Er13   10.000   1_556 S
Ti19   V3     10.000   1_455 S
Ti20   Er14   10.000   1_565 S
Ti21   Er13   10.000   1_556 S
Ti21   V5     10.000   1_455 S
Ti23   V7     10.000   1_545 S
Ti24   Er10   10.000   1_556 S
Ti25   V4     10.000   1_545 S
Ti27   Er9    10.000   1_655 S
Ti27   V2     10.000   1_545 S
Ti28   Er10   10.000   1_556 S
Ti29   Er9    10.000   1_655 S
Ti29   V5     10.000   1_545 S
Ti31   V6     10.000   1_554 S
Ti32   Er12   10.000   1_655 S
Ti33   V3     10.000   1_554 S
Ti35   Er11   10.000   1_565 S
Ti35   V4     10.000   1_554 S
Ti36   Er12   10.000   1_655 S
Ti37   Er11   10.000   1_565 S
Ti37   V5     10.000   1_554 S
