data_ithd
_audit_creation_date              2019-09-10
_audit_creation_method            'Materials Studio'
_symmetry_space_group_name_H-M    'P1'
_symmetry_Int_Tables_number       1
_symmetry_cell_setting            triclinic
loop_
_symmetry_equiv_pos_as_xyz
  x,y,z
_cell_length_a                    25.0000
_cell_length_b                    25.0000
_cell_length_c                    25.0000
_cell_angle_alpha                 90.0000
_cell_angle_beta                  90.0000
_cell_angle_gamma                 90.0000
loop_
_atom_site_label
_atom_site_type_symbol
_atom_site_fract_x
_atom_site_fract_y
_atom_site_fract_z
_atom_site_U_iso_or_equiv
_atom_site_adp_type
_atom_site_occupancy
V1     V     0.25000   0.25000   0.25000   0.00000  Uiso   1.00
V2     V     0.75000   0.75000   0.25000   0.00000  Uiso   1.00
V3     V     0.75000   0.25000   0.75000   0.00000  Uiso   1.00
V4     V     0.25000   0.75000   0.75000   0.00000  Uiso   1.00
V5     V     0.75000   0.75000   0.75000   0.00000  Uiso   1.00
V6     V     0.25000   0.25000   0.75000   0.00000  Uiso   1.00
V7     V     0.25000   0.75000   0.25000   0.00000  Uiso   1.00
V8     V     0.75000   0.25000   0.25000   0.00000  Uiso   1.00
Er9    Er    0.25000   0.00000   0.50000   0.00000  Uiso   1.00
Er10   Er    0.75000   0.00000   0.50000   0.00000  Uiso   1.00
Er11   Er    0.50000   0.25000   0.00000   0.00000  Uiso   1.00
Er12   Er    0.50000   0.75000   0.00000   0.00000  Uiso   1.00
Er13   Er    0.00000   0.50000   0.25000   0.00000  Uiso   1.00
Er14   Er    0.00000   0.50000   0.75000   0.00000  Uiso   1.00
loop_
_geom_bond_atom_site_label_1
_geom_bond_atom_site_label_2
_geom_bond_distance
_geom_bond_site_symmetry_2
_ccdc_geom_bond_type
V1     Er11    8.839   .     S
V1     Er13    8.839   .     S
V1     Er9     8.839   .     S
V2     Er12    8.839   .     S
V2     Er13    8.839   1_655 S
V2     Er10    8.839   1_565 S
V3     Er11    8.839   1_556 S
V3     Er14    8.839   1_655 S
V3     Er10    8.839   .     S
V4     Er12    8.839   1_556 S
V4     Er14    8.839   .     S
V4     Er9     8.839   1_565 S
V5     Er12    8.839   1_556 S
V5     Er14    8.839   1_655 S
V5     Er10    8.839   1_565 S
V6     Er11    8.839   1_556 S
V6     Er14    8.839   .     S
V6     Er9     8.839   .     S
V7     Er12    8.839   .     S
V7     Er13    8.839   .     S
V7     Er9     8.839   1_565 S
V8     Er11    8.839   .     S
V8     Er13    8.839   1_655 S
V8     Er10    8.839   .     S
Er9    V4      8.839   1_545 S
Er9    V7      8.839   1_545 S
Er9    Er10   12.500   .     S
Er9    Er10   12.500   1_455 S
Er10   V2      8.839   1_545 S
Er10   V5      8.839   1_545 S
Er10   Er9    12.500   1_655 S
Er11   V3      8.839   1_554 S
Er11   V6      8.839   1_554 S
Er11   Er12   12.500   .     S
Er11   Er12   12.500   1_545 S
Er12   V4      8.839   1_554 S
Er12   V5      8.839   1_554 S
Er12   Er11   12.500   1_565 S
Er13   V2      8.839   1_455 S
Er13   V8      8.839   1_455 S
Er13   Er14   12.500   .     S
Er13   Er14   12.500   1_554 S
Er14   V3      8.839   1_455 S
Er14   V5      8.839   1_455 S
Er14   Er13   12.500   1_556 S
