data_kkm\(2)\(2)
_audit_creation_date              2018-08-24
_audit_creation_method            'Materials Studio'
_symmetry_space_group_name_H-M    'P1'
_symmetry_Int_Tables_number       1
_symmetry_cell_setting            triclinic
loop_
_symmetry_equiv_pos_as_xyz
  x,y,z
_cell_length_a                    34.8330
_cell_length_b                    24.5260
_cell_length_c                    20.0000
_cell_angle_alpha                 90.0000
_cell_angle_beta                  90.0000
_cell_angle_gamma                 90.0000
loop_
_atom_site_label
_atom_site_type_symbol
_atom_site_fract_x
_atom_site_fract_y
_atom_site_fract_z
_atom_site_U_iso_or_equiv
_atom_site_adp_type
_atom_site_occupancy
V1     V     0.06640   0.31910   0.26351   0.00000  Uiso   1.00
Er2    Er    0.34170   0.43360   0.26351   0.00000  Uiso   1.00
V3     V     0.93360   0.68090   0.26351   0.00000  Uiso   1.00
Er4    Er    0.65830   0.56640   0.26351   0.00000  Uiso   1.00
V5     V      0.43360   0.81910   0.26351   0.00000  Uiso   1.00
Er6    Er    0.15830   0.93360   0.26351   0.00000  Uiso   1.00
V7     V     0.56640   0.18090   0.26351   0.00000  Uiso   1.00
Er8    Er    0.84170   0.06640   0.26351   0.00000  Uiso   1.00
V9     V     0.06640   0.31910   0.76351   0.00000  Uiso   1.00
Er10   Er    0.34170   0.43360   0.76351   0.00000  Uiso   1.00
V11    V     0.93360   0.68090   0.76351   0.00000  Uiso   1.00
Er12   Er    0.65830   0.56640   0.76351   0.00000  Uiso   1.00
V13    V     0.43360   0.81910   0.76351   0.00000  Uiso   1.00
Er14   Er    0.15830   0.93360   0.76351   0.00000  Uiso   1.00
V15    V     0.56640   0.18090   0.76351   0.00000  Uiso   1.00
Er16   Er    0.84170   0.06640   0.76351   0.00000  Uiso   1.00
loop_
_geom_bond_atom_site_label_1
_geom_bond_atom_site_label_2
_geom_bond_distance
_geom_bond_site_symmetry_2
_ccdc_geom_bond_type
V1     Er2     9.992   .     S
V1     V9     10.000   .     S
V1     V9     10.000   1_554 S
V1     Er6     9.982   1_545 S
V1     Er8     9.984   1_455 S
V1     V3     10.007   1_455 S
Er2    V5      9.982   .     S
Er2    V7      9.984   .     S
V3     Er4     9.992   .     S
V3     V11    10.000   .     S
V3     V1     10.007   1_655 S
V3     V11    10.000   1_554 S
V3     Er8     9.982   1_565 S
V3     Er6     9.984   1_655 S
Er4    V7      9.982   .     S
Er4    V5      9.984   .     S
V5     Er6     9.992   .     S
V5     V13    10.000   1_554 S
V5     V7     10.007   1_565 S
Er6    V1      9.982   1_565 S
Er6    V3      9.984   1_455 S
V7     Er8     9.992   .     S
V7     V5     10.007   1_545 S
V7     V15    10.000   1_554 S
Er8    V1      9.984   1_655 S
Er8    V3      9.982   1_545 S
V9     Er10    9.992   .     S
V9     V1     10.000   1_556 S
V9     Er14    9.982   1_545 S
V9     Er16    9.984   1_455 S
V9     V11    10.007   1_455 S
Er10   V13     9.982   .     S
Er10   V15     9.984   .     S
V11    Er12    9.992   .     S
V11    V3     10.000   1_556 S
V11    V9     10.007   1_655 S
V11    Er16    9.982   1_565 S
V11    Er14    9.984   1_655 S
Er12   V15     9.982   .     S
Er12   V13     9.984   .     S
V13    Er14    9.992   .     S
V13    V5     10.000   1_556 S
V13    V15    10.007   1_565 S
Er14   V9      9.982   1_565 S
Er14   V11     9.984   1_455 S
V15    Er16    9.992   .     S
V15    V7     10.000   1_556 S
V15    V13    10.007   1_545 S
Er16   V9      9.984   1_655 S
Er16   V11     9.982   1_545 S
V5     V13    10.000   .     S
V7     V15    10.000   .     S
