data_kle
_audit_creation_date              2019-09-10
_audit_creation_method            'Materials Studio'
_symmetry_space_group_name_H-M    'P1'
_symmetry_Int_Tables_number       1
_symmetry_cell_setting            triclinic
loop_
_symmetry_equiv_pos_as_xyz
  x,y,z
_cell_length_a                    36.4600
_cell_length_b                    36.4600
_cell_length_c                    36.4600
_cell_angle_alpha                 90.0000
_cell_angle_beta                  90.0000
_cell_angle_gamma                 90.0000
loop_
_atom_site_label
_atom_site_type_symbol
_atom_site_fract_x
_atom_site_fract_y
_atom_site_fract_z
_atom_site_U_iso_or_equiv
_atom_site_adp_type
_atom_site_occupancy
V1     V     0.00000   0.36290   0.24970   0.00000  Uiso   1.00
Ti2    Ti    0.00000   0.24970   0.13710   0.00000  Uiso   1.00
V3     V     0.50000   0.86290   0.74970   0.00000  Uiso   1.00
Ti4    Ti    0.50000   0.74970   0.63710   0.00000  Uiso   1.00
V5     V     0.00000   0.63710   0.24970   0.00000  Uiso   1.00
Ti6    Ti    0.00000   0.75030   0.13710   0.00000  Uiso   1.00
V7     V     0.50000   0.13710   0.74970   0.00000  Uiso   1.00
Ti8    Ti    0.50000   0.25030   0.63710   0.00000  Uiso   1.00
V9     V     0.00000   0.36290   0.75030   0.00000  Uiso   1.00
Ti10   Ti    0.00000   0.24970   0.86290   0.00000  Uiso   1.00
V11    V     0.50000   0.86290   0.25030   0.00000  Uiso   1.00
Ti12   Ti    0.50000   0.74970   0.36290   0.00000  Uiso   1.00
V13    V     0.00000   0.63710   0.75030   0.00000  Uiso   1.00
Ti14   Ti    0.00000   0.75030   0.86290   0.00000  Uiso   1.00
V15    V     0.50000   0.13710   0.25030   0.00000  Uiso   1.00
Ti16   Ti    0.50000   0.25030   0.36290   0.00000  Uiso   1.00
V17    V     0.24970   0.00000   0.36290   0.00000  Uiso   1.00
Ti18   Ti    0.13710   0.00000   0.24970   0.00000  Uiso   1.00
V19    V     0.74970   0.50000   0.86290   0.00000  Uiso   1.00
Ti20   Ti    0.63710   0.50000   0.74970   0.00000  Uiso   1.00
V21    V     0.24970   0.00000   0.63710   0.00000  Uiso   1.00
Ti22   Ti    0.13710   0.00000   0.75030   0.00000  Uiso   1.00
V23    V     0.74970   0.50000   0.13710   0.00000  Uiso   1.00
Ti24   Ti    0.63710   0.50000   0.25030   0.00000  Uiso   1.00
V25    V     0.75030   0.00000   0.36290   0.00000  Uiso   1.00
Ti26   Ti    0.86290   0.00000   0.24970   0.00000  Uiso   1.00
V27    V     0.25030   0.50000   0.86290   0.00000  Uiso   1.00
Ti28   Ti    0.36290   0.50000   0.74970   0.00000  Uiso   1.00
V29    V     0.75030   0.00000   0.63710   0.00000  Uiso   1.00
Ti30   Ti    0.86290   0.00000   0.75030   0.00000  Uiso   1.00
V31    V     0.25030   0.50000   0.13710   0.00000  Uiso   1.00
Ti32   Ti    0.36290   0.50000   0.25030   0.00000  Uiso   1.00
V33    V     0.36290   0.24970   0.00000   0.00000  Uiso   1.00
Ti34   Ti    0.24970   0.13710   0.00000   0.00000  Uiso   1.00
V35    V     0.86290   0.74970   0.50000   0.00000  Uiso   1.00
Ti36   Ti    0.74970   0.63710   0.50000   0.00000  Uiso   1.00
V37    V     0.63710   0.24970   0.00000   0.00000  Uiso   1.00
Ti38   Ti    0.75030   0.13710   0.00000   0.00000  Uiso   1.00
V39    V     0.13710   0.74970   0.50000   0.00000  Uiso   1.00
Ti40   Ti    0.25030   0.63710   0.50000   0.00000  Uiso   1.00
V41    V     0.36290   0.75030   0.00000   0.00000  Uiso   1.00
Ti42   Ti    0.24970   0.86290   0.00000   0.00000  Uiso   1.00
V43    V     0.86290   0.25030   0.50000   0.00000  Uiso   1.00
Ti44   Ti    0.74970   0.36290   0.50000   0.00000  Uiso   1.00
V45    V     0.63710   0.75030   0.00000   0.00000  Uiso   1.00
Ti46   Ti    0.75030   0.86290   0.00000   0.00000  Uiso   1.00
V47    V     0.13710   0.25030   0.50000   0.00000  Uiso   1.00
Ti48   Ti    0.25030   0.36290   0.50000   0.00000  Uiso   1.00
Er49   Er    0.25000   0.25000   0.25000   0.00000  Uiso   1.00
Er50   Er    0.75000   0.75000   0.25000   0.00000  Uiso   1.00
Er51   Er    0.75000   0.25000   0.75000   0.00000  Uiso   1.00
Er52   Er    0.25000   0.75000   0.75000   0.00000  Uiso   1.00
Er53   Er    0.75000   0.75000   0.75000   0.00000  Uiso   1.00
Er54   Er    0.25000   0.25000   0.75000   0.00000  Uiso   1.00
Er55   Er    0.25000   0.75000   0.25000   0.00000  Uiso   1.00
Er56   Er    0.75000   0.25000   0.25000   0.00000  Uiso   1.00
loop_
_geom_bond_atom_site_label_1
_geom_bond_atom_site_label_2
_geom_bond_distance
_geom_bond_site_symmetry_2
_ccdc_geom_bond_type
V1     Er56   10.001   1_455 S
V1     Er49   10.001   .     S
V1     V5      9.997   .     S
Ti2    Er49   10.001   .     S
Ti2    Er56   10.001   1_455 S
Ti2    Ti10    9.997   1_554 S
V3     Er52   10.001   .     S
V3     Er53   10.001   .     S
V3     V7      9.997   1_565 S
Ti4    Er53   10.001   .     S
Ti4    Er52   10.001   .     S
Ti4    Ti12    9.997   .     S
V5     Er55   10.001   .     S
V5     Er50   10.001   1_455 S
Ti6    Er50   10.001   1_455 S
Ti6    Er55   10.001   .     S
Ti6    Ti14    9.997   1_554 S
V7     Er51   10.001   .     S
V7     Er54   10.001   .     S
V7     V3      9.997   1_545 S
Ti8    Er54   10.001   .     S
Ti8    Er51   10.001   .     S
Ti8    Ti16    9.997   .     S
V9     Er54   10.001   .     S
V9     Er51   10.001   1_455 S
V9     V13     9.997   .     S
Ti10   Er51   10.001   1_455 S
Ti10   Er54   10.001   .     S
Ti10   Ti2     9.997   1_556 S
V11    Er50   10.001   .     S
V11    Er55   10.001   .     S
V11    V15     9.997   1_565 S
Ti12   Er55   10.001   .     S
Ti12   Er50   10.001   .     S
V13    Er53   10.001   1_455 S
V13    Er52   10.001   .     S
Ti14   Er52   10.001   .     S
Ti14   Er53   10.001   1_455 S
Ti14   Ti6     9.997   1_556 S
V15    Er49   10.001   .     S
V15    Er56   10.001   .     S
V15    V11     9.997   1_545 S
Ti16   Er56   10.001   .     S
Ti16   Er49   10.001   .     S
V17    Er55   10.001   1_545 S
V17    Er49   10.001   .     S
V17    V21     9.997   .     S
Ti18   Er49   10.001   .     S
Ti18   Er55   10.001   1_545 S
Ti18   Ti26    9.997   1_455 S
V19    Er51   10.001   .     S
V19    Er53   10.001   .     S
V19    V23     9.997   1_556 S
Ti20   Er53   10.001   .     S
Ti20   Er51   10.001   .     S
Ti20   Ti28    9.997   .     S
V21    Er54   10.001   .     S
V21    Er52   10.001   1_545 S
Ti22   Er52   10.001   1_545 S
Ti22   Er54   10.001   .     S
Ti22   Ti30    9.997   1_455 S
V23    Er50   10.001   .     S
V23    Er56   10.001   .     S
V23    V19     9.997   1_554 S
Ti24   Er56   10.001   .     S
Ti24   Er50   10.001   .     S
Ti24   Ti32    9.997   .     S
V25    Er56   10.001   .     S
V25    Er50   10.001   1_545 S
V25    V29     9.997   .     S
Ti26   Er50   10.001   1_545 S
Ti26   Er56   10.001   .     S
Ti26   Ti18    9.997   1_655 S
V27    Er52   10.001   .     S
V27    Er54   10.001   .     S
V27    V31     9.997   1_556 S
Ti28   Er54   10.001   .     S
Ti28   Er52   10.001   .     S
V29    Er53   10.001   1_545 S
V29    Er51   10.001   .     S
Ti30   Er51   10.001   .     S
Ti30   Er53   10.001   1_545 S
Ti30   Ti22    9.997   1_655 S
V31    Er49   10.001   .     S
V31    Er55   10.001   .     S
V31    V27     9.997   1_554 S
Ti32   Er55   10.001   .     S
Ti32   Er49   10.001   .     S
V33    Er54   10.001   1_554 S
V33    Er49   10.001   .     S
V33    V37     9.997   .     S
Ti34   Er49   10.001   .     S
Ti34   Er54   10.001   1_554 S
Ti34   Ti42    9.997   1_545 S
V35    Er50   10.001   .     S
V35    Er53   10.001   .     S
V35    V39     9.997   1_655 S
Ti36   Er53   10.001   .     S
Ti36   Er50   10.001   .     S
Ti36   Ti44    9.997   .     S
V37    Er56   10.001   .     S
V37    Er51   10.001   1_554 S
Ti38   Er51   10.001   1_554 S
Ti38   Er56   10.001   .     S
Ti38   Ti46    9.997   1_545 S
V39    Er52   10.001   .     S
V39    Er55   10.001   .     S
V39    V35     9.997   1_455 S
Ti40   Er55   10.001   .     S
Ti40   Er52   10.001   .     S
Ti40   Ti48    9.997   .     S
V41    Er55   10.001   .     S
V41    Er52   10.001   1_554 S
V41    V45     9.997   .     S
Ti42   Er52   10.001   1_554 S
Ti42   Er55   10.001   .     S
Ti42   Ti34    9.997   1_565 S
V43    Er51   10.001   .     S
V43    Er56   10.001   .     S
V43    V47     9.997   1_655 S
Ti44   Er56   10.001   .     S
Ti44   Er51   10.001   .     S
V45    Er53   10.001   1_554 S
V45    Er50   10.001   .     S
Ti46   Er50   10.001   .     S
Ti46   Er53   10.001   1_554 S
Ti46   Ti38    9.997   1_565 S
V47    Er49   10.001   .     S
V47    Er54   10.001   .     S
V47    V43     9.997   1_455 S
Ti48   Er54   10.001   .     S
Ti48   Er49   10.001   .     S
Er50   V5     10.001   1_655 S
Er50   V25    10.001   1_565 S
Er50   Ti6    10.001   1_655 S
Er50   Ti26   10.001   1_565 S
Er51   V37    10.001   1_556 S
Er51   V9     10.001   1_655 S
Er51   Ti38   10.001   1_556 S
Er51   Ti10   10.001   1_655 S
Er52   V41    10.001   1_556 S
Er52   V21    10.001   1_565 S
Er52   Ti42   10.001   1_556 S
Er52   Ti22   10.001   1_565 S
Er53   V45    10.001   1_556 S
Er53   V13    10.001   1_655 S
Er53   V29    10.001   1_565 S
Er53   Ti46   10.001   1_556 S
Er53   Ti14   10.001   1_655 S
Er53   Ti30   10.001   1_565 S
Er54   V33    10.001   1_556 S
Er54   Ti34   10.001   1_556 S
Er55   V17    10.001   1_565 S
Er55   Ti18   10.001   1_565 S
Er56   V1     10.001   1_655 S
Er56   Ti2    10.001   1_655 S
