data_kxe
_audit_creation_date              2019-09-10
_audit_creation_method            'Materials Studio'
_symmetry_space_group_name_H-M    'P1'
_symmetry_Int_Tables_number       1
_symmetry_cell_setting            triclinic
loop_
_symmetry_equiv_pos_as_xyz
  x,y,z
_cell_length_a                    25.7820
_cell_length_b                    25.7820
_cell_length_c                    63.1480
_cell_angle_alpha                 90.0000
_cell_angle_beta                  90.0000
_cell_angle_gamma                 120.0000
loop_
_atom_site_label
_atom_site_type_symbol
_atom_site_fract_x
_atom_site_fract_y
_atom_site_fract_z
_atom_site_U_iso_or_equiv
_atom_site_adp_type
_atom_site_occupancy
V1     V     0.90887   0.59133   0.95433   0.00000  Uiso   1.00
V2     V     0.57553   0.92467   0.28767   0.00000  Uiso   1.00
V3     V     0.24220   0.25800   0.62100   0.00000  Uiso   1.00
V4     V     0.40867   0.31753   0.95433   0.00000  Uiso   1.00
V5     V     0.07533   0.65087   0.28767   0.00000  Uiso   1.00
V6     V     0.74200   0.98420   0.62100   0.00000  Uiso   1.00
V7     V     0.68247   0.09113   0.95433   0.00000  Uiso   1.00
V8     V     0.34913   0.42447   0.28767   0.00000  Uiso   1.00
V9     V     0.01580   0.75780   0.62100   0.00000  Uiso   1.00
V10    V     0.59133   0.90887   0.54567   0.00000  Uiso   1.00
V11    V     0.25800   0.24220   0.87900   0.00000  Uiso   1.00
V12    V     0.92467   0.57553   0.21233   0.00000  Uiso   1.00
V13    V     0.31753   0.40867   0.54567   0.00000  Uiso   1.00
V14    V     0.98420   0.74200   0.87900   0.00000  Uiso   1.00
V15    V     0.65087   0.07533   0.21233   0.00000  Uiso   1.00
V16    V     0.09113   0.68247   0.54567   0.00000  Uiso   1.00
V17    V     0.75780   0.01580   0.87900   0.00000  Uiso   1.00
V18    V     0.42447   0.34913   0.21233   0.00000  Uiso   1.00
V19    V     0.09113   0.40867   0.04567   0.00000  Uiso   1.00
V20    V     0.75780   0.74200   0.37900   0.00000  Uiso   1.00
V21    V     0.42447   0.07533   0.71233   0.00000  Uiso   1.00
V22    V     0.59133   0.68247   0.04567   0.00000  Uiso   1.00
V23    V     0.25800   0.01580   0.37900   0.00000  Uiso   1.00
V24    V     0.92467   0.34913   0.71233   0.00000  Uiso   1.00
V25    V     0.31753   0.90887   0.04567   0.00000  Uiso   1.00
V26    V     0.98420   0.24220   0.37900   0.00000  Uiso   1.00
V27    V     0.65087   0.57553   0.71233   0.00000  Uiso   1.00
V28    V     0.40867   0.09113   0.45433   0.00000  Uiso   1.00
V29    V     0.07533   0.42447   0.78767   0.00000  Uiso   1.00
V30    V     0.74200   0.75780   0.12100   0.00000  Uiso   1.00
V31    V     0.68247   0.59133   0.45433   0.00000  Uiso   1.00
V32    V     0.34913   0.92467   0.78767   0.00000  Uiso   1.00
V33    V     0.01580   0.25800   0.12100   0.00000  Uiso   1.00
V34    V     0.90887   0.31753   0.45433   0.00000  Uiso   1.00
V35    V     0.57553   0.65087   0.78767   0.00000  Uiso   1.00
V36    V     0.24220   0.98420   0.12100   0.00000  Uiso   1.00
Er37   Er    0.66667   0.33333   0.83333   0.00000  Uiso   1.00
Er38   Er    0.00000   0.00000   0.50000   0.00000  Uiso   1.00
Er39   Er    0.33333   0.66667   0.66667   0.00000  Uiso   1.00
Er40   Er    0.00000  -0.00000   0.00000   0.00000  Uiso   1.00
Er41   Er    0.33333   0.66667   0.16667   0.00000  Uiso   1.00
Er42   Er    0.66667   0.33333   0.33333   0.00000  Uiso   1.00
loop_
_geom_bond_atom_site_label_1
_geom_bond_atom_site_label_2
_geom_bond_distance
_geom_bond_site_symmetry_2
_ccdc_geom_bond_type
V1     Er37   10.004   .     S
V1     Er40   10.005   1_666 S
V1     V19     9.983   1_656 S
V2     Er41   10.004   .     S
V2     Er42   10.005   1_565 S
V2     V20     9.983   .     S
V3     Er38   10.004   .     S
V3     Er39   10.005   .     S
V3     V21     9.983   .     S
V4     Er37   10.004   .     S
V4     Er40   10.005   1_556 S
V4     V22     9.983   1_556 S
V5     Er41   10.004   .     S
V5     Er42   10.005   1_455 S
V5     V23     9.983   1_565 S
V6     Er38   10.004   1_665 S
V6     Er39   10.005   .     S
V6     V24     9.983   1_565 S
V7     Er37   10.004   .     S
V7     Er40   10.005   1_656 S
V7     V25     9.983   1_546 S
V8     Er41   10.004   .     S
V8     Er42   10.005   .     S
V8     V26     9.983   1_455 S
V9     Er38   10.004   1_565 S
V9     Er39   10.005   .     S
V9     V27     9.983   1_455 S
V10    Er39   10.004   .     S
V10    Er38   10.005   1_665 S
V10    V28     9.983   1_565 S
V11    Er40   10.004   1_556 S
V11    Er37   10.005   .     S
V11    V29     9.983   .     S
V12    Er42   10.004   .     S
V12    Er41   10.005   1_655 S
V12    V30     9.983   .     S
V13    Er39   10.004   .     S
V13    Er38   10.005   .     S
V13    V31     9.983   .     S
V14    Er40   10.004   1_666 S
V14    Er37   10.005   .     S
V14    V32     9.983   1_655 S
V15    Er42   10.004   .     S
V15    Er41   10.005   1_545 S
V15    V33     9.983   1_655 S
V16    Er39   10.004   .     S
V16    Er38   10.005   1_565 S
V16    V34     9.983   1_455 S
V17    Er40   10.004   1_656 S
V17    Er37   10.005   .     S
V17    V35     9.983   1_545 S
V18    Er42   10.004   .     S
V18    Er41   10.005   .     S
V18    V36     9.983   1_545 S
V19    Er41   10.004   .     S
V19    Er40   10.005   .     S
V19    V1      9.983   1_454 S
V20    Er38   10.004   1_665 S
V20    Er42   10.005   .     S
V21    Er37   10.004   .     S
V21    Er39   10.005   1_545 S
V22    Er41   10.004   .     S
V22    Er40   10.005   1_665 S
V22    V4      9.983   1_554 S
V23    Er38   10.004   .     S
V23    Er42   10.005   .     S
V23    V5      9.983   1_545 S
V24    Er37   10.004   .     S
V24    Er39   10.005   1_655 S
V24    V6      9.983   1_545 S
V25    Er41   10.004   .     S
V25    Er40   10.005   1_565 S
V25    V7      9.983   1_564 S
V26    Er38   10.004   1_655 S
V26    Er42   10.005   .     S
V26    V8      9.983   1_655 S
V27    Er37   10.004   .     S
V27    Er39   10.005   .     S
V27    V9      9.983   1_655 S
V28    Er42   10.004   .     S
V28    Er38   10.005   .     S
V28    V10     9.983   1_545 S
V29    Er39   10.004   .     S
V29    Er37   10.005   1_455 S
V30    Er40   10.004   1_665 S
V30    Er41   10.005   .     S
V31    Er42   10.004   .     S
V31    Er38   10.005   1_665 S
V32    Er39   10.004   .     S
V32    Er37   10.005   1_565 S
V32    V14     9.983   1_455 S
V33    Er40   10.004   .     S
V33    Er41   10.005   .     S
V33    V15     9.983   1_455 S
V34    Er42   10.004   .     S
V34    Er38   10.005   1_655 S
V34    V16     9.983   1_655 S
V35    Er39   10.004   .     S
V35    Er37   10.005   .     S
V35    V17     9.983   1_565 S
V36    Er40   10.004   1_565 S
V36    Er41   10.005   .     S
V36    V18     9.983   1_565 S
Er37   V32    10.005   1_545 S
Er37   V29    10.005   1_655 S
Er38   V6     10.004   1_445 S
Er38   V9     10.004   1_545 S
Er38   V26    10.004   1_455 S
Er38   V20    10.004   1_445 S
Er38   V34    10.005   1_455 S
Er38   V31    10.005   1_445 S
Er38   V16    10.005   1_545 S
Er38   V10    10.005   1_445 S
Er39   V24    10.005   1_455 S
Er39   V21    10.005   1_565 S
Er40   V36    10.004   1_545 S
Er40   V30    10.004   1_445 S
Er40   V14    10.004   1_444 S
Er40   V17    10.004   1_454 S
Er40   V11    10.004   1_554 S
Er40   V7     10.005   1_454 S
Er40   V4     10.005   1_554 S
Er40   V1     10.005   1_444 S
Er40   V25    10.005   1_545 S
Er40   V22    10.005   1_445 S
Er41   V15    10.005   1_565 S
Er41   V12    10.005   1_455 S
Er42   V5     10.005   1_655 S
Er42   V2     10.005   1_545 S
