data_lnj
_audit_creation_date              2019-05-28
_audit_creation_method            'Materials Studio'
_symmetry_space_group_name_H-M    'P1'
_symmetry_Int_Tables_number       1
_symmetry_cell_setting            triclinic
loop_
_symmetry_equiv_pos_as_xyz
  x,y,z
_cell_length_a                    28.4360
_cell_length_b                    28.4360
_cell_length_c                    35.5570
_cell_angle_alpha                 90.0000
_cell_angle_beta                  90.0000
_cell_angle_gamma                 120.0000
loop_
_atom_site_label
_atom_site_type_symbol
_atom_site_fract_x
_atom_site_fract_y
_atom_site_fract_z
_atom_site_U_iso_or_equiv
_atom_site_adp_type
_atom_site_occupancy
V1     V     0.66667   0.33333   0.25000   0.00000  Uiso   1.00
V2     V     0.33333   0.66667   0.75000   0.00000  Uiso   1.00
Er3    Er    0.36880   0.18440   0.05880   0.00000  Uiso   1.00
Er4    Er    0.81560   0.18440   0.05880   0.00000  Uiso   1.00
Er5    Er    0.81560   0.63120   0.05880   0.00000  Uiso   1.00
Er6    Er    0.63120   0.81560   0.55880   0.00000  Uiso   1.00
Er7    Er    0.18440   0.81560   0.55880   0.00000  Uiso   1.00
Er8    Er    0.18440   0.36880   0.55880   0.00000  Uiso   1.00
Er9    Er    0.18440   0.36880   0.94120   0.00000  Uiso   1.00
Er10   Er    0.18440   0.81560   0.94120   0.00000  Uiso   1.00
Er11   Er    0.63120   0.81560   0.94120   0.00000  Uiso   1.00
Er12   Er    0.81560   0.63120   0.44120   0.00000  Uiso   1.00
Er13   Er    0.81560   0.18440   0.44120   0.00000  Uiso   1.00
Er14   Er    0.36880   0.18440   0.44120   0.00000  Uiso   1.00
loop_
_geom_bond_atom_site_label_1
_geom_bond_atom_site_label_2
_geom_bond_distance
_geom_bond_site_symmetry_2
_ccdc_geom_bond_type
V1     Er14   10.001   .     S
V1     Er13   10.001   .     S
V1     Er12   10.001   .     S
V1     Er5    10.001   .     S
V1     Er4    10.001   .     S
V1     Er3    10.001   .     S
V2     Er11   10.001   .     S
V2     Er10   10.001   .     S
V2     Er9    10.001   .     S
V2     Er8    10.001   .     S
V2     Er7    10.001   .     S
V2     Er6    10.001   .     S
Er3    Er9     9.999   1_554 S
Er3    Er10    9.999   1_544 S
Er4    Er11    9.999   1_544 S
Er4    Er9     9.999   1_654 S
Er5    Er10    9.999   1_654 S
Er5    Er11    9.999   1_554 S
Er6    Er12    9.999   .     S
Er6    Er13    9.999   1_565 S
Er7    Er14    9.999   1_565 S
Er7    Er12    9.999   1_455 S
Er8    Er13    9.999   1_455 S
Er8    Er14    9.999   .     S
Er9    Er3     9.999   1_556 S
Er9    Er4     9.999   1_456 S
Er10   Er5     9.999   1_456 S
Er10   Er3     9.999   1_566 S
Er11   Er4     9.999   1_566 S
Er11   Er5     9.999   1_556 S
Er12   Er7     9.999   1_655 S
Er13   Er8     9.999   1_655 S
Er13   Er6     9.999   1_545 S
Er14   Er7     9.999   1_545 S
