data_mcn
_audit_creation_date              2018-10-10
_audit_creation_method            'Materials Studio'
_symmetry_space_group_name_H-M    'P1'
_symmetry_Int_Tables_number       1
_symmetry_cell_setting            triclinic
loop_
_symmetry_equiv_pos_as_xyz
  x,y,z
_cell_length_a                    25.7800
_cell_length_b                    25.7800
_cell_length_c                    20.0000
_cell_angle_alpha                 90.0000
_cell_angle_beta                  90.0000
_cell_angle_gamma                 90.0000
loop_
_atom_site_label
_atom_site_type_symbol
_atom_site_fract_x
_atom_site_fract_y
_atom_site_fract_z
_atom_site_U_iso_or_equiv
_atom_site_adp_type
_atom_site_occupancy
V1     V     0.36290   0.86290   0.00000   0.00000  Uiso   1.00
V2     V     0.63710   0.13710   0.00000   0.00000  Uiso   1.00
V3     V     0.13710   0.36290   0.00000   0.00000  Uiso   1.00
V4     V     0.86290   0.63710   0.00000   0.00000  Uiso   1.00
Er5    Er    0.00000   0.00000   0.00000   0.00000  Uiso   1.00
Er6    Er    0.50000   0.50000   0.00000   0.00000  Uiso   1.00
V7     V     0.36290   0.86290   0.50000   0.00000  Uiso   1.00
V8     V     0.63710   0.13710   0.50000   0.00000  Uiso   1.00
V9     V     0.13710   0.36290   0.50000   0.00000  Uiso   1.00
V10    V     0.86290   0.63710   0.50000   0.00000  Uiso   1.00
Er11   Er    0.00000   0.00000   0.50000   0.00000  Uiso   1.00
Er12   Er    0.50000   0.50000   0.50000   0.00000  Uiso   1.00
loop_
_geom_bond_atom_site_label_1
_geom_bond_atom_site_label_2
_geom_bond_distance
_geom_bond_site_symmetry_2
_ccdc_geom_bond_type
V1     Er6    10.001   .     S
V1     Er5    10.001   1_565 S
V1     V2      9.997   1_565 S
V2     Er6    10.001   .     S
V2     V1      9.997   1_545 S
V2     Er5    10.001   1_655 S
V3     Er6    10.001   .     S
V3     Er5    10.001   .     S
V3     V4      9.997   1_455 S
V4     Er6    10.001   .     S
V4     V3      9.997   1_655 S
V4     Er5    10.001   1_665 S
Er5    V1     10.001   1_545 S
Er5    V2     10.001   1_455 S
Er5    V4     10.001   1_445 S
Er5    Er11   10.000   1_554 S
Er6    Er12   10.000   .     S
Er6    Er12   10.000   1_554 S
V7     Er12   10.001   .     S
V7     Er11   10.001   1_565 S
V7     V8      9.997   1_565 S
V8     Er12   10.001   .     S
V8     V7      9.997   1_545 S
V8     Er11   10.001   1_655 S
V9     Er12   10.001   .     S
V9     Er11   10.001   .     S
V9     V10     9.997   1_455 S
V10    Er12   10.001   .     S
V10    V9      9.997   1_655 S
V10    Er11   10.001   1_665 S
Er11   Er5    10.000   1_556 S
Er11   V7     10.001   1_545 S
Er11   V8     10.001   1_455 S
Er11   V10    10.001   1_445 S
Er12   Er6    10.000   1_556 S
Er5    Er11   10.000   .     S
