data_mhqz
_audit_creation_date              2019-08-20
_audit_creation_method            'Materials Studio'
_symmetry_space_group_name_H-M    'P1'
_symmetry_Int_Tables_number       1
_symmetry_cell_setting            triclinic
loop_
_symmetry_equiv_pos_as_xyz
  x,y,z
_cell_length_a                    27.4730
_cell_length_b                    27.4730
_cell_length_c                    27.4730
_cell_angle_alpha                 90.0000
_cell_angle_beta                  90.0000
_cell_angle_gamma                 90.0000
loop_
_atom_site_label
_atom_site_type_symbol
_atom_site_fract_x
_atom_site_fract_y
_atom_site_fract_z
_atom_site_U_iso_or_equiv
_atom_site_adp_type
_atom_site_occupancy
V1     V     0.30000   0.30000   0.30000   0.00000  Uiso   1.00
V2     V     0.30000   0.80000   0.80000   0.00000  Uiso   1.00
V3     V     0.80000   0.30000   0.80000   0.00000  Uiso   1.00
V4     V     0.80000   0.80000   0.30000   0.00000  Uiso   1.00
V5     V     0.70000   0.70000   0.30000   0.00000  Uiso   1.00
V6     V     0.70000   0.20000   0.80000   0.00000  Uiso   1.00
V7     V     0.20000   0.70000   0.80000   0.00000  Uiso   1.00
V8     V     0.20000   0.20000   0.30000   0.00000  Uiso   1.00
V9     V     0.70000   0.30000   0.70000   0.00000  Uiso   1.00
V10    V     0.70000   0.80000   0.20000   0.00000  Uiso   1.00
V11    V     0.20000   0.30000   0.20000   0.00000  Uiso   1.00
V12    V     0.20000   0.80000   0.70000   0.00000  Uiso   1.00
V13    V     0.30000   0.70000   0.70000   0.00000  Uiso   1.00
V14    V     0.30000   0.20000   0.20000   0.00000  Uiso   1.00
V15    V     0.80000   0.70000   0.20000   0.00000  Uiso   1.00
V16    V     0.80000   0.20000   0.70000   0.00000  Uiso   1.00
V17    V     0.30000   0.30000   0.70000   0.00000  Uiso   1.00
V18    V     0.30000   0.80000   0.20000   0.00000  Uiso   1.00
V19    V     0.80000   0.30000   0.20000   0.00000  Uiso   1.00
V20    V     0.80000   0.80000   0.70000   0.00000  Uiso   1.00
V21    V     0.70000   0.70000   0.70000   0.00000  Uiso   1.00
V22    V     0.70000   0.20000   0.20000   0.00000  Uiso   1.00
V23    V     0.20000   0.70000   0.20000   0.00000  Uiso   1.00
V24    V     0.20000   0.20000   0.70000   0.00000  Uiso   1.00
V25    V     0.30000   0.70000   0.30000   0.00000  Uiso   1.00
V26    V     0.30000   0.20000   0.80000   0.00000  Uiso   1.00
V27    V     0.80000   0.70000   0.80000   0.00000  Uiso   1.00
V28    V     0.80000   0.20000   0.30000   0.00000  Uiso   1.00
V29    V     0.70000   0.30000   0.30000   0.00000  Uiso   1.00
V30    V     0.70000   0.80000   0.80000   0.00000  Uiso   1.00
V31    V     0.20000   0.30000   0.80000   0.00000  Uiso   1.00
V32    V     0.20000   0.80000   0.30000   0.00000  Uiso   1.00
Er33   Er    0.25000   0.00000   0.00000   0.00000  Uiso   1.00
Er34   Er    0.25000   0.50000   0.50000   0.00000  Uiso   1.00
Er35   Er    0.75000   0.00000   0.50000   0.00000  Uiso   1.00
Er36   Er    0.75000   0.50000   0.00000   0.00000  Uiso   1.00
Er37   Er    0.75000   0.00000   0.00000   0.00000  Uiso   1.00
Er38   Er    0.75000   0.50000   0.50000   0.00000  Uiso   1.00
Er39   Er    0.25000   0.00000   0.50000   0.00000  Uiso   1.00
Er40   Er    0.25000   0.50000   0.00000   0.00000  Uiso   1.00
Er41   Er    0.00000   0.25000   0.00000   0.00000  Uiso   1.00
Er42   Er    0.00000   0.75000   0.50000   0.00000  Uiso   1.00
Er43   Er    0.50000   0.25000   0.50000   0.00000  Uiso   1.00
Er44   Er    0.50000   0.75000   0.00000   0.00000  Uiso   1.00
Er45   Er    0.00000   0.75000   0.00000   0.00000  Uiso   1.00
Er46   Er    0.00000   0.25000   0.50000   0.00000  Uiso   1.00
Er47   Er    0.50000   0.75000   0.50000   0.00000  Uiso   1.00
Er48   Er    0.50000   0.25000   0.00000   0.00000  Uiso   1.00
Er49   Er    0.00000   0.00000   0.25000   0.00000  Uiso   1.00
Er50   Er    0.00000   0.50000   0.75000   0.00000  Uiso   1.00
Er51   Er    0.50000   0.00000   0.75000   0.00000  Uiso   1.00
Er52   Er    0.50000   0.50000   0.25000   0.00000  Uiso   1.00
Er53   Er    0.00000   0.00000   0.75000   0.00000  Uiso   1.00
Er54   Er    0.00000   0.50000   0.25000   0.00000  Uiso   1.00
Er55   Er    0.50000   0.00000   0.25000   0.00000  Uiso   1.00
Er56   Er    0.50000   0.50000   0.75000   0.00000  Uiso   1.00
loop_
_geom_bond_atom_site_label_1
_geom_bond_atom_site_label_2
_geom_bond_distance
_geom_bond_site_symmetry_2
_ccdc_geom_bond_type
V1     Er54   10.000   .     S
V1     Er39   10.000   .     S
V1     Er48   10.000   .     S
V2     Er53   10.000   1_565 S
V2     Er40   10.000   1_556 S
V2     Er47   10.000   .     S
V3     Er56   10.000   .     S
V3     Er37   10.000   1_556 S
V3     Er46   10.000   1_655 S
V4     Er55   10.000   1_565 S
V4     Er38   10.000   .     S
V4     Er45   10.000   1_655 S
V5     Er54   10.000   1_655 S
V5     Er35   10.000   1_565 S
V5     Er44   10.000   .     S
V6     Er53   10.000   1_655 S
V6     Er36   10.000   1_556 S
V6     Er43   10.000   .     S
V7     Er56   10.000   .     S
V7     Er33   10.000   1_566 S
V7     Er42   10.000   .     S
V8     Er55   10.000   .     S
V8     Er34   10.000   .     S
V8     Er41   10.000   .     S
V9     Er50   10.000   1_655 S
V9     Er35   10.000   .     S
V9     Er48   10.000   1_556 S
V10    Er49   10.000   1_665 S
V10    Er36   10.000   .     S
V10    Er47   10.000   .     S
V11    Er52   10.000   .     S
V11    Er33   10.000   .     S
V11    Er46   10.000   .     S
V12    Er51   10.000   1_565 S
V12    Er34   10.000   .     S
V12    Er45   10.000   1_556 S
V13    Er50   10.000   .     S
V13    Er39   10.000   1_565 S
V13    Er44   10.000   1_556 S
V14    Er49   10.000   .     S
V14    Er40   10.000   .     S
V14    Er43   10.000   .     S
V15    Er52   10.000   .     S
V15    Er37   10.000   1_565 S
V15    Er42   10.000   1_655 S
V16    Er51   10.000   .     S
V16    Er38   10.000   .     S
V16    Er41   10.000   1_656 S
V17    Er51   10.000   .     S
V17    Er46   10.000   .     S
V17    Er40   10.000   1_556 S
V18    Er52   10.000   .     S
V18    Er45   10.000   .     S
V18    Er39   10.000   1_565 S
V19    Er49   10.000   1_655 S
V19    Er48   10.000   .     S
V19    Er38   10.000   .     S
V20    Er50   10.000   1_655 S
V20    Er47   10.000   .     S
V20    Er37   10.000   1_566 S
V21    Er51   10.000   1_565 S
V21    Er42   10.000   1_655 S
V21    Er36   10.000   1_556 S
V22    Er52   10.000   .     S
V22    Er41   10.000   1_655 S
V22    Er35   10.000   .     S
V23    Er49   10.000   1_565 S
V23    Er44   10.000   .     S
V23    Er34   10.000   .     S
V24    Er50   10.000   .     S
V24    Er43   10.000   .     S
V24    Er33   10.000   1_556 S
V25    Er55   10.000   1_565 S
V25    Er42   10.000   .     S
V25    Er40   10.000   .     S
V26    Er56   10.000   .     S
V26    Er41   10.000   1_556 S
V26    Er39   10.000   .     S
V27    Er53   10.000   1_665 S
V27    Er44   10.000   1_556 S
V27    Er38   10.000   .     S
V28    Er54   10.000   1_655 S
V28    Er43   10.000   .     S
V28    Er37   10.000   .     S
V29    Er55   10.000   .     S
V29    Er46   10.000   1_655 S
V29    Er36   10.000   .     S
V30    Er56   10.000   .     S
V30    Er45   10.000   1_656 S
V30    Er35   10.000   1_565 S
V31    Er53   10.000   .     S
V31    Er48   10.000   1_556 S
V31    Er34   10.000   .     S
V32    Er54   10.000   .     S
V32    Er47   10.000   .     S
V32    Er33   10.000   1_565 S
Er33   V24    10.000   1_554 S
Er33   V32    10.000   1_545 S
Er33   V7     10.000   1_544 S
Er35   V30    10.000   1_545 S
Er35   V5     10.000   1_545 S
Er36   V21    10.000   1_554 S
Er36   V6     10.000   1_554 S
Er37   V20    10.000   1_544 S
Er37   V3     10.000   1_554 S
Er37   V15    10.000   1_545 S
Er39   V18    10.000   1_545 S
Er39   V13    10.000   1_545 S
Er40   V17    10.000   1_554 S
Er40   V2     10.000   1_554 S
Er41   V22    10.000   1_455 S
Er41   V26    10.000   1_554 S
Er41   V16    10.000   1_454 S
Er42   V21    10.000   1_455 S
Er42   V15    10.000   1_455 S
Er44   V27    10.000   1_554 S
Er44   V13    10.000   1_554 S
Er45   V30    10.000   1_454 S
Er45   V4     10.000   1_455 S
Er45   V12    10.000   1_554 S
Er46   V29    10.000   1_455 S
Er46   V3     10.000   1_455 S
Er48   V31    10.000   1_554 S
Er48   V9     10.000   1_554 S
Er49   V23    10.000   1_545 S
Er49   V19    10.000   1_455 S
Er49   V10    10.000   1_445 S
Er50   V20    10.000   1_455 S
Er50   V9     10.000   1_455 S
Er51   V21    10.000   1_545 S
Er51   V12    10.000   1_545 S
Er53   V27    10.000   1_445 S
Er53   V2     10.000   1_545 S
Er53   V6     10.000   1_455 S
Er54   V28    10.000   1_455 S
Er54   V5     10.000   1_455 S
Er55   V25    10.000   1_545 S
Er55   V4     10.000   1_545 S
