data_nfa
_audit_creation_date              2019-09-09
_audit_creation_method            'Materials Studio'
_symmetry_space_group_name_H-M    'P1'
_symmetry_Int_Tables_number       1
_symmetry_cell_setting            triclinic
loop_
_symmetry_equiv_pos_as_xyz
  x,y,z
_cell_length_a                    28.2840
_cell_length_b                    28.2840
_cell_length_c                    28.2840
_cell_angle_alpha                 90.0000
_cell_angle_beta                  90.0000
_cell_angle_gamma                 90.0000
loop_
_atom_site_label
_atom_site_type_symbol
_atom_site_fract_x
_atom_site_fract_y
_atom_site_fract_z
_atom_site_U_iso_or_equiv
_atom_site_adp_type
_atom_site_occupancy
V1     V     0.12500   0.37500   0.37500   0.00000  Uiso   1.00
V2     V     0.37500   0.62500   0.87500   0.00000  Uiso   1.00
V3     V     0.87500   0.87500   0.12500   0.00000  Uiso   1.00
V4     V     0.62500   0.12500   0.62500   0.00000  Uiso   1.00
V5     V     0.12500   0.62500   0.12500   0.00000  Uiso   1.00
V6     V     0.37500   0.12500   0.37500   0.00000  Uiso   1.00
V7     V     0.87500   0.37500   0.62500   0.00000  Uiso   1.00
V8     V     0.12500   0.87500   0.87500   0.00000  Uiso   1.00
V9     V     0.62500   0.62500   0.12500   0.00000  Uiso   1.00
V10    V     0.12500   0.12500   0.62500   0.00000  Uiso   1.00
V11    V     0.37500   0.37500   0.12500   0.00000  Uiso   1.00
V12    V     0.62500   0.87500   0.37500   0.00000  Uiso   1.00
V13    V     0.87500   0.12500   0.87500   0.00000  Uiso   1.00
V14    V     0.12500   0.62500   0.62500   0.00000  Uiso   1.00
V15    V     0.62500   0.12500   0.12500   0.00000  Uiso   1.00
V16    V     0.12500   0.37500   0.87500   0.00000  Uiso   1.00
V17    V     0.37500   0.62500   0.37500   0.00000  Uiso   1.00
V18    V     0.87500   0.87500   0.62500   0.00000  Uiso   1.00
V19    V     0.87500   0.62500   0.87500   0.00000  Uiso   1.00
V20    V     0.62500   0.37500   0.37500   0.00000  Uiso   1.00
V21    V     0.37500   0.87500   0.12500   0.00000  Uiso   1.00
V22    V     0.62500   0.87500   0.87500   0.00000  Uiso   1.00
V23    V     0.87500   0.12500   0.37500   0.00000  Uiso   1.00
V24    V     0.37500   0.37500   0.62500   0.00000  Uiso   1.00
loop_
_geom_bond_atom_site_label_1
_geom_bond_atom_site_label_2
_geom_bond_distance
_geom_bond_site_symmetry_2
_ccdc_geom_bond_type
V1     V17    10.000   .     S
V1     V10    10.000   .     S
V1     V5     10.000   .     S
V1     V23    10.000   1_455 S
V2     V16    10.000   .     S
V2     V21    10.000   1_556 S
V2     V24    10.000   .     S
V2     V22    10.000   .     S
V3     V15    10.000   1_565 S
V3     V19    10.000   1_554 S
V3     V23    10.000   1_565 S
V3     V5     10.000   1_655 S
V4     V18    10.000   1_545 S
V4     V20    10.000   .     S
V4     V22    10.000   1_545 S
V4     V24    10.000   .     S
V5     V8     10.000   1_554 S
V5     V11    10.000   .     S
V5     V3     10.000   1_455 S
V6     V24    10.000   .     S
V6     V15    10.000   .     S
V6     V10    10.000   .     S
V6     V21    10.000   1_545 S
V7     V23    10.000   .     S
V7     V16    10.000   1_655 S
V7     V20    10.000   .     S
V7     V19    10.000   .     S
V8     V5     10.000   1_556 S
V8     V18    10.000   1_455 S
V8     V21    10.000   1_556 S
V8     V10    10.000   1_565 S
V9     V22    10.000   1_554 S
V9     V17    10.000   .     S
V9     V19    10.000   1_554 S
V9     V20    10.000   .     S
V10    V13    10.000   1_455 S
V10    V8     10.000   1_545 S
V11    V20    10.000   .     S
V11    V15    10.000   .     S
V11    V16    10.000   1_554 S
V12    V21    10.000   .     S
V12    V23    10.000   1_565 S
V12    V17    10.000   .     S
V12    V18    10.000   .     S
V13    V10    10.000   1_655 S
V13    V22    10.000   1_545 S
V13    V16    10.000   1_655 S
V13    V15    10.000   1_556 S
V14    V19    10.000   1_455 S
V14    V24    10.000   .     S
V14    V18    10.000   1_455 S
V14    V17    10.000   .     S
V15    V3     10.000   1_545 S
V15    V13    10.000   1_554 S
V16    V7     10.000   1_455 S
V16    V11    10.000   1_556 S
V16    V13    10.000   1_455 S
V18    V4     10.000   1_565 S
V18    V8     10.000   1_655 S
V18    V14    10.000   1_655 S
V19    V14    10.000   1_655 S
V19    V3     10.000   1_556 S
V19    V9     10.000   1_556 S
V21    V2     10.000   1_554 S
V21    V6     10.000   1_565 S
V21    V8     10.000   1_554 S
V22    V9     10.000   1_556 S
V22    V13    10.000   1_565 S
V22    V4     10.000   1_565 S
V23    V12    10.000   1_545 S
V23    V1     10.000   1_655 S
V23    V3     10.000   1_545 S
