data_nia
_audit_creation_date              2019-09-09
_audit_creation_method            'Materials Studio'
_symmetry_space_group_name_H-M    'P1'
_symmetry_Int_Tables_number       1
_symmetry_cell_setting            triclinic
loop_
_symmetry_equiv_pos_as_xyz
  x,y,z
_cell_length_a                    14.1410
_cell_length_b                    14.1410
_cell_length_c                    23.0940
_cell_angle_alpha                 90.0000
_cell_angle_beta                  90.0000
_cell_angle_gamma                 120.0000
loop_
_atom_site_label
_atom_site_type_symbol
_atom_site_fract_x
_atom_site_fract_y
_atom_site_fract_z
_atom_site_U_iso_or_equiv
_atom_site_adp_type
_atom_site_occupancy
Er1    Er    0.00000   0.00000   0.00000   0.00000  Uiso   1.00
Er2    Er    0.00000   0.00000   0.50000   0.00000  Uiso   1.00
V3     V     0.33333   0.66667   0.25000   0.00000  Uiso   1.00
V4     V     0.66667   0.33333   0.75000   0.00000  Uiso   1.00
loop_
_geom_bond_atom_site_label_1
_geom_bond_atom_site_label_2
_geom_bond_distance
_geom_bond_site_symmetry_2
_ccdc_geom_bond_type
Er1    V3      9.999   .     S
Er1    V3      9.999   1_445 S
Er1    V3      9.999   1_545 S
Er1    V4      9.999   1_444 S
Er1    V4      9.999   1_454 S
Er1    V4      9.999   1_554 S
Er2    V4      9.999   .     S
Er2    V3      9.999   .     S
Er2    V4      9.999   1_455 S
Er2    V4      9.999   1_445 S
Er2    V3      9.999   1_545 S
Er2    V3      9.999   1_445 S
V3     Er1     9.999   1_665 S
V3     Er1     9.999   1_565 S
V3     Er2     9.999   1_565 S
V3     Er2     9.999   1_665 S
V4     Er1     9.999   1_666 S
V4     Er1     9.999   1_656 S
V4     Er1     9.999   1_556 S
V4     Er2     9.999   1_655 S
V4     Er2     9.999   1_665 S
