data_ntt
_audit_creation_date              2019-09-11
_audit_creation_method            'Materials Studio'
_symmetry_space_group_name_H-M    'P1'
_symmetry_Int_Tables_number       1
_symmetry_cell_setting            triclinic
loop_
_symmetry_equiv_pos_as_xyz
  x,y,z
_cell_length_a                    73.4850
_cell_length_b                    73.4850
_cell_length_c                    73.4850
_cell_angle_alpha                 90.0000
_cell_angle_beta                  90.0000
_cell_angle_gamma                 90.0000
loop_
_atom_site_label
_atom_site_type_symbol
_atom_site_fract_x
_atom_site_fract_y
_atom_site_fract_z
_atom_site_U_iso_or_equiv
_atom_site_adp_type
_atom_site_occupancy
V1     V     0.00000   0.16667   0.16667   0.00000  Uiso   1.00
V2     V     0.00000   0.66667   0.66667   0.00000  Uiso   1.00
V3     V     0.50000   0.16667   0.66667   0.00000  Uiso   1.00
V4     V     0.50000   0.66667   0.16667   0.00000  Uiso   1.00
V5     V     0.00000   0.83333   0.16667   0.00000  Uiso   1.00
V6     V     0.00000   0.33333   0.66667   0.00000  Uiso   1.00
V7     V     0.50000   0.83333   0.66667   0.00000  Uiso   1.00
V8     V     0.50000   0.33333   0.16667   0.00000  Uiso   1.00
V9     V     0.00000   0.16667   0.83333   0.00000  Uiso   1.00
V10    V     0.00000   0.66667   0.33333   0.00000  Uiso   1.00
V11    V     0.50000   0.16667   0.33333   0.00000  Uiso   1.00
V12    V     0.50000   0.66667   0.83333   0.00000  Uiso   1.00
V13    V     0.00000   0.83333   0.83333   0.00000  Uiso   1.00
V14    V     0.00000   0.33333   0.33333   0.00000  Uiso   1.00
V15    V     0.50000   0.83333   0.33333   0.00000  Uiso   1.00
V16    V     0.50000   0.33333   0.83333   0.00000  Uiso   1.00
V17    V     0.16667   0.00000   0.16667   0.00000  Uiso   1.00
V18    V     0.16667   0.50000   0.66667   0.00000  Uiso   1.00
V19    V     0.66667   0.00000   0.66667   0.00000  Uiso   1.00
V20    V     0.66667   0.50000   0.16667   0.00000  Uiso   1.00
V21    V     0.16667   0.00000   0.83333   0.00000  Uiso   1.00
V22    V     0.16667   0.50000   0.33333   0.00000  Uiso   1.00
V23    V     0.66667   0.00000   0.33333   0.00000  Uiso   1.00
V24    V     0.66667   0.50000   0.83333   0.00000  Uiso   1.00
V25    V     0.83333   0.00000   0.16667   0.00000  Uiso   1.00
V26    V     0.83333   0.50000   0.66667   0.00000  Uiso   1.00
V27    V     0.33333   0.00000   0.66667   0.00000  Uiso   1.00
V28    V     0.33333   0.50000   0.16667   0.00000  Uiso   1.00
V29    V     0.83333   0.00000   0.83333   0.00000  Uiso   1.00
V30    V     0.83333   0.50000   0.33333   0.00000  Uiso   1.00
V31    V     0.33333   0.00000   0.33333   0.00000  Uiso   1.00
V32    V     0.33333   0.50000   0.83333   0.00000  Uiso   1.00
V33    V     0.16667   0.16667   0.00000   0.00000  Uiso   1.00
V34    V     0.16667   0.66667   0.50000   0.00000  Uiso   1.00
V35    V     0.66667   0.16667   0.50000   0.00000  Uiso   1.00
V36    V     0.66667   0.66667   0.00000   0.00000  Uiso   1.00
V37    V     0.83333   0.16667   0.00000   0.00000  Uiso   1.00
V38    V     0.83333   0.66667   0.50000   0.00000  Uiso   1.00
V39    V     0.33333   0.16667   0.50000   0.00000  Uiso   1.00
V40    V     0.33333   0.66667   0.00000   0.00000  Uiso   1.00
V41    V     0.16667   0.83333   0.00000   0.00000  Uiso   1.00
V42    V     0.16667   0.33333   0.50000   0.00000  Uiso   1.00
V43    V     0.66667   0.83333   0.50000   0.00000  Uiso   1.00
V44    V     0.66667   0.33333   0.00000   0.00000  Uiso   1.00
V45    V     0.83333   0.83333   0.00000   0.00000  Uiso   1.00
V46    V     0.83333   0.33333   0.50000   0.00000  Uiso   1.00
V47    V     0.33333   0.83333   0.50000   0.00000  Uiso   1.00
V48    V     0.33333   0.33333   0.00000   0.00000  Uiso   1.00
Er49   Er    0.16680   0.16680   0.33320   0.00000  Uiso   1.00
Er50   Er    0.83320   0.83320   0.33320   0.00000  Uiso   1.00
Er51   Er    0.33320   0.33320   0.33320   0.00000  Uiso   1.00
Er52   Er    0.83320   0.16680   0.66680   0.00000  Uiso   1.00
Er53   Er    0.33320   0.16680   0.16680   0.00000  Uiso   1.00
Er54   Er    0.16680   0.83320   0.66680   0.00000  Uiso   1.00
Er55   Er    0.16680   0.33320   0.16680   0.00000  Uiso   1.00
Er56   Er    0.33320   0.66680   0.66680   0.00000  Uiso   1.00
Er57   Er    0.33320   0.83320   0.83320   0.00000  Uiso   1.00
Er58   Er    0.66680   0.83320   0.16680   0.00000  Uiso   1.00
Er59   Er    0.66680   0.33320   0.66680   0.00000  Uiso   1.00
Er60   Er    0.66680   0.16680   0.83320   0.00000  Uiso   1.00
Er61   Er    0.66680   0.66680   0.33320   0.00000  Uiso   1.00
Er62   Er    0.83320   0.33320   0.83320   0.00000  Uiso   1.00
Er63   Er    0.16680   0.66680   0.83320   0.00000  Uiso   1.00
Er64   Er    0.83320   0.66680   0.16680   0.00000  Uiso   1.00
Er65   Er    0.16680   0.16680   0.66680   0.00000  Uiso   1.00
Er66   Er    0.83320   0.83320   0.66680   0.00000  Uiso   1.00
Er67   Er    0.83320   0.33320   0.16680   0.00000  Uiso   1.00
Er68   Er    0.33320   0.83320   0.16680   0.00000  Uiso   1.00
Er69   Er    0.16680   0.83320   0.33320   0.00000  Uiso   1.00
Er70   Er    0.83320   0.16680   0.33320   0.00000  Uiso   1.00
Er71   Er    0.33320   0.66680   0.33320   0.00000  Uiso   1.00
Er72   Er    0.16680   0.33320   0.83320   0.00000  Uiso   1.00
Er73   Er    0.33320   0.33320   0.66680   0.00000  Uiso   1.00
Er74   Er    0.83320   0.66680   0.83320   0.00000  Uiso   1.00
Er75   Er    0.33320   0.16680   0.83320   0.00000  Uiso   1.00
Er76   Er    0.16680   0.66680   0.16680   0.00000  Uiso   1.00
Er77   Er    0.66680   0.16680   0.16680   0.00000  Uiso   1.00
Er78   Er    0.66680   0.66680   0.66680   0.00000  Uiso   1.00
Er79   Er    0.66680   0.83320   0.83320   0.00000  Uiso   1.00
Er80   Er    0.66680   0.33320   0.33320   0.00000  Uiso   1.00
Ti81   Ti    0.11111   0.11111   0.22222   0.00000  Uiso   1.00
Ti82   Ti    0.11111   0.61111   0.72222   0.00000  Uiso   1.00
Ti83   Ti    0.61111   0.11111   0.72222   0.00000  Uiso   1.00
Ti84   Ti    0.61111   0.61111   0.22222   0.00000  Uiso   1.00
Ti85   Ti    0.88889   0.88889   0.22222   0.00000  Uiso   1.00
Ti86   Ti    0.88889   0.38889   0.72222   0.00000  Uiso   1.00
Ti87   Ti    0.38889   0.88889   0.72222   0.00000  Uiso   1.00
Ti88   Ti    0.38889   0.38889   0.22222   0.00000  Uiso   1.00
Ti89   Ti    0.88889   0.11111   0.77778   0.00000  Uiso   1.00
Ti90   Ti    0.88889   0.61111   0.27778   0.00000  Uiso   1.00
Ti91   Ti    0.38889   0.11111   0.27778   0.00000  Uiso   1.00
Ti92   Ti    0.38889   0.61111   0.77778   0.00000  Uiso   1.00
Ti93   Ti    0.11111   0.88889   0.77778   0.00000  Uiso   1.00
Ti94   Ti    0.11111   0.38889   0.27778   0.00000  Uiso   1.00
Ti95   Ti    0.61111   0.88889   0.27778   0.00000  Uiso   1.00
Ti96   Ti    0.61111   0.38889   0.77778   0.00000  Uiso   1.00
Ti97   Ti    0.22222   0.11111   0.11111   0.00000  Uiso   1.00
Ti98   Ti    0.22222   0.61111   0.61111   0.00000  Uiso   1.00
Ti99   Ti    0.72222   0.11111   0.61111   0.00000  Uiso   1.00
Ti100  Ti    0.72222   0.61111   0.11111   0.00000  Uiso   1.00
Ti101  Ti    0.22222   0.88889   0.88889   0.00000  Uiso   1.00
Ti102  Ti    0.22222   0.38889   0.38889   0.00000  Uiso   1.00
Ti103  Ti    0.72222   0.88889   0.38889   0.00000  Uiso   1.00
Ti104  Ti    0.72222   0.38889   0.88889   0.00000  Uiso   1.00
Ti105  Ti    0.77778   0.88889   0.11111   0.00000  Uiso   1.00
Ti106  Ti    0.77778   0.38889   0.61111   0.00000  Uiso   1.00
Ti107  Ti    0.27778   0.88889   0.61111   0.00000  Uiso   1.00
Ti108  Ti    0.27778   0.38889   0.11111   0.00000  Uiso   1.00
Ti109  Ti    0.77778   0.11111   0.88889   0.00000  Uiso   1.00
Ti110  Ti    0.77778   0.61111   0.38889   0.00000  Uiso   1.00
Ti111  Ti    0.27778   0.11111   0.38889   0.00000  Uiso   1.00
Ti112  Ti    0.27778   0.61111   0.88889   0.00000  Uiso   1.00
Ti113  Ti    0.11111   0.22222   0.11111   0.00000  Uiso   1.00
Ti114  Ti    0.11111   0.72222   0.61111   0.00000  Uiso   1.00
Ti115  Ti    0.61111   0.22222   0.61111   0.00000  Uiso   1.00
Ti116  Ti    0.61111   0.72222   0.11111   0.00000  Uiso   1.00
Ti117  Ti    0.88889   0.22222   0.88889   0.00000  Uiso   1.00
Ti118  Ti    0.88889   0.72222   0.38889   0.00000  Uiso   1.00
Ti119  Ti    0.38889   0.22222   0.38889   0.00000  Uiso   1.00
Ti120  Ti    0.38889   0.72222   0.88889   0.00000  Uiso   1.00
Ti121  Ti    0.11111   0.77778   0.88889   0.00000  Uiso   1.00
Ti122  Ti    0.11111   0.27778   0.38889   0.00000  Uiso   1.00
Ti123  Ti    0.61111   0.77778   0.38889   0.00000  Uiso   1.00
Ti124  Ti    0.61111   0.27778   0.88889   0.00000  Uiso   1.00
Ti125  Ti    0.88889   0.77778   0.11111   0.00000  Uiso   1.00
Ti126  Ti    0.88889   0.27778   0.61111   0.00000  Uiso   1.00
Ti127  Ti    0.38889   0.77778   0.61111   0.00000  Uiso   1.00
Ti128  Ti    0.38889   0.27778   0.11111   0.00000  Uiso   1.00
Ti129  Ti    0.11111   0.11111   0.77778   0.00000  Uiso   1.00
Ti130  Ti    0.11111   0.61111   0.27778   0.00000  Uiso   1.00
Ti131  Ti    0.61111   0.11111   0.27778   0.00000  Uiso   1.00
Ti132  Ti    0.61111   0.61111   0.77778   0.00000  Uiso   1.00
Ti133  Ti    0.88889   0.88889   0.77778   0.00000  Uiso   1.00
Ti134  Ti    0.88889   0.38889   0.27778   0.00000  Uiso   1.00
Ti135  Ti    0.38889   0.88889   0.27778   0.00000  Uiso   1.00
Ti136  Ti    0.38889   0.38889   0.77778   0.00000  Uiso   1.00
Ti137  Ti    0.11111   0.88889   0.22222   0.00000  Uiso   1.00
Ti138  Ti    0.11111   0.38889   0.72222   0.00000  Uiso   1.00
Ti139  Ti    0.61111   0.88889   0.72222   0.00000  Uiso   1.00
Ti140  Ti    0.61111   0.38889   0.22222   0.00000  Uiso   1.00
Ti141  Ti    0.88889   0.11111   0.22222   0.00000  Uiso   1.00
Ti142  Ti    0.88889   0.61111   0.72222   0.00000  Uiso   1.00
Ti143  Ti    0.38889   0.11111   0.72222   0.00000  Uiso   1.00
Ti144  Ti    0.38889   0.61111   0.22222   0.00000  Uiso   1.00
Ti145  Ti    0.11111   0.22222   0.88889   0.00000  Uiso   1.00
Ti146  Ti    0.11111   0.72222   0.38889   0.00000  Uiso   1.00
Ti147  Ti    0.61111   0.22222   0.38889   0.00000  Uiso   1.00
Ti148  Ti    0.61111   0.72222   0.88889   0.00000  Uiso   1.00
Ti149  Ti    0.88889   0.22222   0.11111   0.00000  Uiso   1.00
Ti150  Ti    0.88889   0.72222   0.61111   0.00000  Uiso   1.00
Ti151  Ti    0.38889   0.22222   0.61111   0.00000  Uiso   1.00
Ti152  Ti    0.38889   0.72222   0.11111   0.00000  Uiso   1.00
Ti153  Ti    0.88889   0.77778   0.88889   0.00000  Uiso   1.00
Ti154  Ti    0.88889   0.27778   0.38889   0.00000  Uiso   1.00
Ti155  Ti    0.38889   0.77778   0.38889   0.00000  Uiso   1.00
Ti156  Ti    0.38889   0.27778   0.88889   0.00000  Uiso   1.00
Ti157  Ti    0.11111   0.77778   0.11111   0.00000  Uiso   1.00
Ti158  Ti    0.11111   0.27778   0.61111   0.00000  Uiso   1.00
Ti159  Ti    0.61111   0.77778   0.61111   0.00000  Uiso   1.00
Ti160  Ti    0.61111   0.27778   0.11111   0.00000  Uiso   1.00
Ti161  Ti    0.22222   0.11111   0.88889   0.00000  Uiso   1.00
Ti162  Ti    0.22222   0.61111   0.38889   0.00000  Uiso   1.00
Ti163  Ti    0.72222   0.11111   0.38889   0.00000  Uiso   1.00
Ti164  Ti    0.72222   0.61111   0.88889   0.00000  Uiso   1.00
Ti165  Ti    0.22222   0.88889   0.11111   0.00000  Uiso   1.00
Ti166  Ti    0.22222   0.38889   0.61111   0.00000  Uiso   1.00
Ti167  Ti    0.72222   0.88889   0.61111   0.00000  Uiso   1.00
Ti168  Ti    0.72222   0.38889   0.11111   0.00000  Uiso   1.00
Ti169  Ti    0.77778   0.11111   0.11111   0.00000  Uiso   1.00
Ti170  Ti    0.77778   0.61111   0.61111   0.00000  Uiso   1.00
Ti171  Ti    0.27778   0.11111   0.61111   0.00000  Uiso   1.00
Ti172  Ti    0.27778   0.61111   0.11111   0.00000  Uiso   1.00
Ti173  Ti    0.77778   0.88889   0.88889   0.00000  Uiso   1.00
Ti174  Ti    0.77778   0.38889   0.38889   0.00000  Uiso   1.00
Ti175  Ti    0.27778   0.88889   0.38889   0.00000  Uiso   1.00
Ti176  Ti    0.27778   0.38889   0.88889   0.00000  Uiso   1.00
loop_
_geom_bond_atom_site_label_1
_geom_bond_atom_site_label_2
_geom_bond_distance
_geom_bond_site_symmetry_2
_ccdc_geom_bond_type
V1     Ti149  10.000   1_455 S
V1     Ti81   10.000   .     S
V1     Ti113  10.000   .     S
V1     Ti141  10.000   1_455 S
V2     Ti150  10.000   1_455 S
V2     Ti82   10.000   .     S
V2     Ti114  10.000   .     S
V2     Ti142  10.000   1_455 S
V3     Ti151  10.000   .     S
V3     Ti83   10.000   .     S
V3     Ti115  10.000   .     S
V3     Ti143  10.000   .     S
V4     Ti152  10.000   .     S
V4     Ti84   10.000   .     S
V4     Ti116  10.000   .     S
V4     Ti144  10.000   .     S
V5     Ti157  10.000   .     S
V5     Ti85   10.000   1_455 S
V5     Ti125  10.000   1_455 S
V5     Ti137  10.000   .     S
V6     Ti158  10.000   .     S
V6     Ti86   10.000   1_455 S
V6     Ti126  10.000   1_455 S
V6     Ti138  10.000   .     S
V7     Ti159  10.000   .     S
V7     Ti87   10.000   .     S
V7     Ti127  10.000   .     S
V7     Ti139  10.000   .     S
V8     Ti160  10.000   .     S
V8     Ti88   10.000   .     S
V8     Ti128  10.000   .     S
V8     Ti140  10.000   .     S
V9     Ti145  10.000   .     S
V9     Ti89   10.000   1_455 S
V9     Ti117  10.000   1_455 S
V9     Ti129  10.000   .     S
V10    Ti146  10.000   .     S
V10    Ti90   10.000   1_455 S
V10    Ti118  10.000   1_455 S
V10    Ti130  10.000   .     S
V11    Ti147  10.000   .     S
V11    Ti91   10.000   .     S
V11    Ti119  10.000   .     S
V11    Ti131  10.000   .     S
V12    Ti148  10.000   .     S
V12    Ti92   10.000   .     S
V12    Ti120  10.000   .     S
V12    Ti132  10.000   .     S
V13    Ti153  10.000   1_455 S
V13    Ti93   10.000   .     S
V13    Ti121  10.000   .     S
V13    Ti133  10.000   1_455 S
V14    Ti154  10.000   1_455 S
V14    Ti94   10.000   .     S
V14    Ti122  10.000   .     S
V14    Ti134  10.000   1_455 S
V15    Ti155  10.000   .     S
V15    Ti95   10.000   .     S
V15    Ti123  10.000   .     S
V15    Ti135  10.000   .     S
V16    Ti156  10.000   .     S
V16    Ti96   10.000   .     S
V16    Ti124  10.000   .     S
V16    Ti136  10.000   .     S
V17    Ti137  10.000   1_545 S
V17    Ti97   10.000   .     S
V17    Ti81   10.000   .     S
V17    Ti165  10.000   1_545 S
V18    Ti138  10.000   .     S
V18    Ti98   10.000   .     S
V18    Ti82   10.000   .     S
V18    Ti166  10.000   .     S
V19    Ti139  10.000   1_545 S
V19    Ti99   10.000   .     S
V19    Ti83   10.000   .     S
V19    Ti167  10.000   1_545 S
V20    Ti140  10.000   .     S
V20    Ti100  10.000   .     S
V20    Ti84   10.000   .     S
V20    Ti168  10.000   .     S
V21    Ti129  10.000   .     S
V21    Ti101  10.000   1_545 S
V21    Ti93   10.000   1_545 S
V21    Ti161  10.000   .     S
V22    Ti130  10.000   .     S
V22    Ti102  10.000   .     S
V22    Ti94   10.000   .     S
V22    Ti162  10.000   .     S
V23    Ti131  10.000   .     S
V23    Ti103  10.000   1_545 S
V23    Ti95   10.000   1_545 S
V23    Ti163  10.000   .     S
V24    Ti132  10.000   .     S
V24    Ti104  10.000   .     S
V24    Ti96   10.000   .     S
V24    Ti164  10.000   .     S
V25    Ti141  10.000   .     S
V25    Ti105  10.000   1_545 S
V25    Ti85   10.000   1_545 S
V25    Ti169  10.000   .     S
V26    Ti142  10.000   .     S
V26    Ti106  10.000   .     S
V26    Ti86   10.000   .     S
V26    Ti170  10.000   .     S
V27    Ti143  10.000   .     S
V27    Ti107  10.000   1_545 S
V27    Ti87   10.000   1_545 S
V27    Ti171  10.000   .     S
V28    Ti144  10.000   .     S
V28    Ti108  10.000   .     S
V28    Ti88   10.000   .     S
V28    Ti172  10.000   .     S
V29    Ti133  10.000   1_545 S
V29    Ti109  10.000   .     S
V29    Ti89   10.000   .     S
V29    Ti173  10.000   1_545 S
V30    Ti134  10.000   .     S
V30    Ti110  10.000   .     S
V30    Ti90   10.000   .     S
V30    Ti174  10.000   .     S
V31    Ti135  10.000   1_545 S
V31    Ti111  10.000   .     S
V31    Ti91   10.000   .     S
V31    Ti175  10.000   1_545 S
V32    Ti136  10.000   .     S
V32    Ti112  10.000   .     S
V32    Ti92   10.000   .     S
V32    Ti176  10.000   .     S
V33    Ti161  10.000   1_554 S
V33    Ti113  10.000   .     S
V33    Ti97   10.000   .     S
V33    Ti145  10.000   1_554 S
V34    Ti162  10.000   .     S
V34    Ti114  10.000   .     S
V34    Ti98   10.000   .     S
V34    Ti146  10.000   .     S
V35    Ti163  10.000   .     S
V35    Ti115  10.000   .     S
V35    Ti99   10.000   .     S
V35    Ti147  10.000   .     S
V36    Ti164  10.000   1_554 S
V36    Ti116  10.000   .     S
V36    Ti100  10.000   .     S
V36    Ti148  10.000   1_554 S
V37    Ti169  10.000   .     S
V37    Ti117  10.000   1_554 S
V37    Ti109  10.000   1_554 S
V37    Ti149  10.000   .     S
V38    Ti170  10.000   .     S
V38    Ti118  10.000   .     S
V38    Ti110  10.000   .     S
V38    Ti150  10.000   .     S
V39    Ti171  10.000   .     S
V39    Ti119  10.000   .     S
V39    Ti111  10.000   .     S
V39    Ti151  10.000   .     S
V40    Ti172  10.000   .     S
V40    Ti120  10.000   1_554 S
V40    Ti112  10.000   1_554 S
V40    Ti152  10.000   .     S
V41    Ti165  10.000   .     S
V41    Ti121  10.000   1_554 S
V41    Ti101  10.000   1_554 S
V41    Ti157  10.000   .     S
V42    Ti166  10.000   .     S
V42    Ti122  10.000   .     S
V42    Ti102  10.000   .     S
V42    Ti158  10.000   .     S
V43    Ti167  10.000   .     S
V43    Ti123  10.000   .     S
V43    Ti103  10.000   .     S
V43    Ti159  10.000   .     S
V44    Ti168  10.000   .     S
V44    Ti124  10.000   1_554 S
V44    Ti104  10.000   1_554 S
V44    Ti160  10.000   .     S
V45    Ti173  10.000   1_554 S
V45    Ti125  10.000   .     S
V45    Ti105  10.000   .     S
V45    Ti153  10.000   1_554 S
V46    Ti174  10.000   .     S
V46    Ti126  10.000   .     S
V46    Ti106  10.000   .     S
V46    Ti154  10.000   .     S
V47    Ti175  10.000   .     S
V47    Ti127  10.000   .     S
V47    Ti107  10.000   .     S
V47    Ti155  10.000   .     S
V48    Ti176  10.000   1_554 S
V48    Ti128  10.000   .     S
V48    Ti108  10.000   .     S
V48    Ti156  10.000   1_554 S
Er49   Ti122  10.000   .     S
Er49   Ti111  10.000   .     S
Er49   Ti81   10.000   .     S
Er50   Ti118  10.000   .     S
Er50   Ti103  10.000   .     S
Er50   Ti85   10.000   .     S
Er51   Ti88   10.000   .     S
Er51   Ti119  10.000   .     S
Er51   Ti102  10.000   .     S
Er52   Ti126  10.000   .     S
Er52   Ti99   10.000   .     S
Er52   Ti89   10.000   .     S
Er53   Ti91   10.000   .     S
Er53   Ti128  10.000   .     S
Er53   Ti97   10.000   .     S
Er54   Ti114  10.000   .     S
Er54   Ti107  10.000   .     S
Er54   Ti93   10.000   .     S
Er55   Ti108  10.000   .     S
Er55   Ti94   10.000   .     S
Er55   Ti113  10.000   .     S
Er56   Ti92   10.000   .     S
Er56   Ti127  10.000   .     S
Er56   Ti98   10.000   .     S
Er57   Ti87   10.000   .     S
Er57   Ti120  10.000   .     S
Er57   Ti101  10.000   .     S
Er58   Ti95   10.000   .     S
Er58   Ti116  10.000   .     S
Er58   Ti105  10.000   .     S
Er59   Ti96   10.000   .     S
Er59   Ti115  10.000   .     S
Er59   Ti106  10.000   .     S
Er60   Ti83   10.000   .     S
Er60   Ti124  10.000   .     S
Er60   Ti109  10.000   .     S
Er61   Ti84   10.000   .     S
Er61   Ti123  10.000   .     S
Er61   Ti110  10.000   .     S
Er62   Ti104  10.000   .     S
Er62   Ti86   10.000   .     S
Er62   Ti117  10.000   .     S
Er63   Ti112  10.000   .     S
Er63   Ti82   10.000   .     S
Er63   Ti121  10.000   .     S
Er64   Ti100  10.000   .     S
Er64   Ti90   10.000   .     S
Er64   Ti125  10.000   .     S
Er65   Ti171  10.000   .     S
Er65   Ti158  10.000   .     S
Er65   Ti129  10.000   .     S
Er66   Ti167  10.000   .     S
Er66   Ti150  10.000   .     S
Er66   Ti133  10.000   .     S
Er67   Ti134  10.000   .     S
Er67   Ti168  10.000   .     S
Er67   Ti149  10.000   .     S
Er68   Ti152  10.000   .     S
Er68   Ti135  10.000   .     S
Er68   Ti165  10.000   .     S
Er69   Ti175  10.000   .     S
Er69   Ti146  10.000   .     S
Er69   Ti137  10.000   .     S
Er70   Ti163  10.000   .     S
Er70   Ti154  10.000   .     S
Er70   Ti141  10.000   .     S
Er71   Ti155  10.000   .     S
Er71   Ti144  10.000   .     S
Er71   Ti162  10.000   .     S
Er72   Ti138  10.000   .     S
Er72   Ti176  10.000   .     S
Er72   Ti145  10.000   .     S
Er73   Ti151  10.000   .     S
Er73   Ti136  10.000   .     S
Er73   Ti166  10.000   .     S
Er74   Ti142  10.000   .     S
Er74   Ti164  10.000   .     S
Er74   Ti153  10.000   .     S
Er75   Ti156  10.000   .     S
Er75   Ti143  10.000   .     S
Er75   Ti161  10.000   .     S
Er76   Ti130  10.000   .     S
Er76   Ti172  10.000   .     S
Er76   Ti157  10.000   .     S
Er77   Ti160  10.000   .     S
Er77   Ti131  10.000   .     S
Er77   Ti169  10.000   .     S
Er78   Ti159  10.000   .     S
Er78   Ti132  10.000   .     S
Er78   Ti170  10.000   .     S
Er79   Ti148  10.000   .     S
Er79   Ti139  10.000   .     S
Er79   Ti173  10.000   .     S
Er80   Ti147  10.000   .     S
Er80   Ti140  10.000   .     S
Er80   Ti174  10.000   .     S
Ti85   V5     10.000   1_655 S
Ti85   V25    10.000   1_565 S
Ti86   V6     10.000   1_655 S
Ti87   V27    10.000   1_565 S
Ti89   V9     10.000   1_655 S
Ti90   V10    10.000   1_655 S
Ti93   V21    10.000   1_565 S
Ti95   V23    10.000   1_565 S
Ti101  V21    10.000   1_565 S
Ti101  V41    10.000   1_556 S
Ti103  V23    10.000   1_565 S
Ti104  V44    10.000   1_556 S
Ti105  V25    10.000   1_565 S
Ti107  V27    10.000   1_565 S
Ti109  V37    10.000   1_556 S
Ti112  V40    10.000   1_556 S
Ti117  V37    10.000   1_556 S
Ti117  V9     10.000   1_655 S
Ti118  V10    10.000   1_655 S
Ti120  V40    10.000   1_556 S
Ti121  V41    10.000   1_556 S
Ti124  V44    10.000   1_556 S
Ti125  V5     10.000   1_655 S
Ti126  V6     10.000   1_655 S
Ti133  V29    10.000   1_565 S
Ti133  V13    10.000   1_655 S
Ti134  V14    10.000   1_655 S
Ti135  V31    10.000   1_565 S
Ti137  V17    10.000   1_565 S
Ti139  V19    10.000   1_565 S
Ti141  V1     10.000   1_655 S
Ti142  V2     10.000   1_655 S
Ti145  V33    10.000   1_556 S
Ti148  V36    10.000   1_556 S
Ti149  V1     10.000   1_655 S
Ti150  V2     10.000   1_655 S
Ti153  V13    10.000   1_655 S
Ti153  V45    10.000   1_556 S
Ti154  V14    10.000   1_655 S
Ti156  V48    10.000   1_556 S
Ti161  V33    10.000   1_556 S
Ti164  V36    10.000   1_556 S
Ti165  V17    10.000   1_565 S
Ti167  V19    10.000   1_565 S
Ti173  V45    10.000   1_556 S
Ti173  V29    10.000   1_565 S
Ti175  V31    10.000   1_565 S
Ti176  V48    10.000   1_556 S
