data_phx
_audit_creation_date              2018-06-26
_audit_creation_method            'Materials Studio'
_symmetry_space_group_name_H-M    'P1'
_symmetry_Int_Tables_number       1
_symmetry_cell_setting            triclinic
loop_
_symmetry_equiv_pos_as_xyz
  x,y,z
_cell_length_a                    18.0200
_cell_length_b                    18.0200
_cell_length_c                    100.0000
_cell_angle_alpha                 90.0000
_cell_angle_beta                  90.0000
_cell_angle_gamma                 120.0000
loop_
_atom_site_label
_atom_site_type_symbol
_atom_site_fract_x
_atom_site_fract_y
_atom_site_fract_z
_atom_site_U_iso_or_equiv
_atom_site_adp_type
_atom_site_occupancy
V1     V     0.00000   0.00000   0.08920   0.00000  Uiso   1.00
V2     V     0.00000   0.00000   0.75587   0.00000  Uiso   1.00
V3     V     0.00000   0.00000   0.42253   0.00000  Uiso   1.00
V4     V     0.00000   0.00000   0.57747   0.00000  Uiso   1.00
V5     V     0.00000   0.00000   0.91080   0.00000  Uiso   1.00
V6     V     0.00000   0.00000   0.24413   0.00000  Uiso   1.00
Er7    Er    0.00000   0.50000   0.16667   0.00000  Uiso   1.00
Er8    Er    0.50000   0.50000   0.83333   0.00000  Uiso   1.00
Er9    Er    0.50000   0.00000   0.50000   0.00000  Uiso   1.00
loop_
_geom_bond_atom_site_label_1
_geom_bond_atom_site_label_2
_geom_bond_distance
_geom_bond_site_symmetry_2
_ccdc_geom_bond_type
V1     Er7    11.883   .     S
V1     Er7    11.883   1_545 S
V1     V5     17.840   1_554 S
V2     Er8    11.882   .     S
V2     V4     17.840   .     S
V2     Er8    11.882   1_445 S
V3     V6     17.840   .     S
V3     Er9    11.883   .     S
V3     Er9    11.883   1_455 S
V4     Er9    11.883   .     S
V4     Er9    11.883   1_455 S
V5     Er8    11.883   .     S
V5     V1     17.840   1_556 S
V5     Er8    11.883   1_445 S
V6     Er7    11.882   .     S
V6     Er7    11.882   1_545 S
Er7    V1     11.883   1_565 S
Er7    V6     11.882   1_565 S
Er8    V2     11.882   1_665 S
Er8    V5     11.883   1_665 S
Er9    V3     11.883   1_655 S
Er9    V4     11.883   1_655 S
