data_qldz
_audit_creation_date              2019-08-20
_audit_creation_method            'Materials Studio'
_symmetry_space_group_name_H-M    'P1'
_symmetry_Int_Tables_number       1
_symmetry_cell_setting            triclinic
loop_
_symmetry_equiv_pos_as_xyz
  x,y,z
_cell_length_a                    19.2420
_cell_length_b                    19.2420
_cell_length_c                    19.2420
_cell_angle_alpha                 90.0000
_cell_angle_beta                  90.0000
_cell_angle_gamma                 90.0000
loop_
_atom_site_label
_atom_site_type_symbol
_atom_site_fract_x
_atom_site_fract_y
_atom_site_fract_z
_atom_site_U_iso_or_equiv
_atom_site_adp_type
_atom_site_occupancy
V1     V     0.00000   0.00000   0.40000   0.00000  Uiso   1.00
V2     V     0.50000   0.50000   0.90000   0.00000  Uiso   1.00
V3     V     0.00000   0.00000   0.60000   0.00000  Uiso   1.00
V4     V     0.50000   0.50000   0.10000   0.00000  Uiso   1.00
V5     V     0.40000   0.00000   0.00000   0.00000  Uiso   1.00
V6     V     0.90000   0.50000   0.50000   0.00000  Uiso   1.00
V7     V     0.60000   0.00000   0.00000   0.00000  Uiso   1.00
V8     V     0.10000   0.50000   0.50000   0.00000  Uiso   1.00
V9     V     0.00000   0.40000   0.00000   0.00000  Uiso   1.00
V10    V     0.50000   0.90000   0.50000   0.00000  Uiso   1.00
V11    V     0.00000   0.60000   0.00000   0.00000  Uiso   1.00
V12    V     0.50000   0.10000   0.50000   0.00000  Uiso   1.00
loop_
_geom_bond_atom_site_label_1
_geom_bond_atom_site_label_2
_geom_bond_distance
_geom_bond_site_symmetry_2
_ccdc_geom_bond_type
V1     V10     9.998   1_545 S
V1     V12     9.998   1_455 S
V1     V6      9.998   1_445 S
V1     V8      9.998   .     S
V2     V9      9.998   1_656 S
V2     V11     9.998   1_556 S
V2     V5      9.998   1_556 S
V2     V7      9.998   1_566 S
V3     V10     9.998   1_445 S
V3     V12     9.998   .     S
V3     V8      9.998   1_545 S
V3     V6      9.998   1_455 S
V4     V9      9.998   .     S
V4     V11     9.998   1_655 S
V4     V7      9.998   .     S
V4     V5      9.998   1_565 S
V5     V2      9.998   1_554 S
V5     V4      9.998   1_545 S
V5     V10     9.998   1_544 S
V5     V12     9.998   .     S
V6     V1      9.998   1_665 S
V6     V3      9.998   1_655 S
V6     V9      9.998   1_655 S
V6     V11     9.998   1_656 S
V7     V2      9.998   1_544 S
V7     V12     9.998   1_554 S
V7     V10     9.998   1_545 S
V8     V3      9.998   1_565 S
V8     V11     9.998   .     S
V8     V9      9.998   1_556 S
V9     V6      9.998   1_455 S
V9     V8      9.998   1_554 S
V9     V2      9.998   1_454 S
V10    V5      9.998   1_566 S
V10    V7      9.998   1_565 S
V10    V1      9.998   1_565 S
V10    V3      9.998   1_665 S
V11    V6      9.998   1_454 S
V11    V4      9.998   1_455 S
V11    V2      9.998   1_554 S
V12    V7      9.998   1_556 S
V12    V1      9.998   1_655 S
