data_qlez
_audit_creation_date              2019-08-20
_audit_creation_method            'Materials Studio'
_symmetry_space_group_name_H-M    'P1'
_symmetry_Int_Tables_number       1
_symmetry_cell_setting            triclinic
loop_
_symmetry_equiv_pos_as_xyz
  x,y,z
_cell_length_a                    27.7320
_cell_length_b                    27.7320
_cell_length_c                    27.7320
_cell_angle_alpha                 90.0000
_cell_angle_beta                  90.0000
_cell_angle_gamma                 90.0000
loop_
_atom_site_label
_atom_site_type_symbol
_atom_site_fract_x
_atom_site_fract_y
_atom_site_fract_z
_atom_site_U_iso_or_equiv
_atom_site_adp_type
_atom_site_occupancy
V1     V     0.75000   0.45000   0.05000   0.00000  Uiso   1.00
V2     V     0.25000   0.55000   0.05000   0.00000  Uiso   1.00
V3     V     0.25000   0.45000   0.95000   0.00000  Uiso   1.00
V4     V     0.75000   0.55000   0.95000   0.00000  Uiso   1.00
V5     V     0.05000   0.75000   0.45000   0.00000  Uiso   1.00
V6     V     0.05000   0.25000   0.55000   0.00000  Uiso   1.00
V7     V     0.95000   0.25000   0.45000   0.00000  Uiso   1.00
V8     V     0.95000   0.75000   0.55000   0.00000  Uiso   1.00
V9     V     0.45000   0.05000   0.75000   0.00000  Uiso   1.00
V10    V     0.55000   0.05000   0.25000   0.00000  Uiso   1.00
V11    V     0.45000   0.95000   0.25000   0.00000  Uiso   1.00
V12    V     0.55000   0.95000   0.75000   0.00000  Uiso   1.00
V13    V     0.45000   0.75000   0.95000   0.00000  Uiso   1.00
V14    V     0.55000   0.25000   0.95000   0.00000  Uiso   1.00
V15    V     0.45000   0.25000   0.05000   0.00000  Uiso   1.00
V16    V     0.55000   0.75000   0.05000   0.00000  Uiso   1.00
V17    V     0.75000   0.05000   0.55000   0.00000  Uiso   1.00
V18    V     0.25000   0.05000   0.45000   0.00000  Uiso   1.00
V19    V     0.25000   0.95000   0.55000   0.00000  Uiso   1.00
V20    V     0.75000   0.95000   0.45000   0.00000  Uiso   1.00
V21    V     0.05000   0.45000   0.25000   0.00000  Uiso   1.00
V22    V     0.05000   0.55000   0.75000   0.00000  Uiso   1.00
V23    V     0.95000   0.45000   0.75000   0.00000  Uiso   1.00
V24    V     0.95000   0.55000   0.25000   0.00000  Uiso   1.00
loop_
_geom_bond_atom_site_label_1
_geom_bond_atom_site_label_2
_geom_bond_distance
_geom_bond_site_symmetry_2
_ccdc_geom_bond_type
V1     V15     9.999   .     S
V1     V21     9.999   1_655 S
V1     V16     9.999   .     S
V1     V23     9.999   1_554 S
V2     V16     9.999   .     S
V2     V24     9.999   1_455 S
V2     V15     9.999   .     S
V2     V22     9.999   1_554 S
V3     V14     9.999   .     S
V3     V23     9.999   1_455 S
V3     V13     9.999   .     S
V3     V21     9.999   1_556 S
V4     V13     9.999   .     S
V4     V22     9.999   1_655 S
V4     V14     9.999   .     S
V4     V24     9.999   1_556 S
V5     V21     9.999   .     S
V5     V18     9.999   1_565 S
V5     V22     9.999   .     S
V5     V20     9.999   1_455 S
V6     V22     9.999   .     S
V6     V19     9.999   1_545 S
V6     V21     9.999   .     S
V6     V17     9.999   1_455 S
V7     V24     9.999   .     S
V7     V20     9.999   1_545 S
V7     V23     9.999   .     S
V7     V18     9.999   1_655 S
V8     V23     9.999   .     S
V8     V17     9.999   1_565 S
V8     V24     9.999   .     S
V8     V19     9.999   1_655 S
V9     V18     9.999   .     S
V9     V15     9.999   1_556 S
V9     V17     9.999   .     S
V9     V13     9.999   1_545 S
V10    V17     9.999   .     S
V10    V14     9.999   1_554 S
V10    V18     9.999   .     S
V10    V16     9.999   1_545 S
V11    V19     9.999   .     S
V11    V13     9.999   1_554 S
V11    V20     9.999   .     S
V11    V15     9.999   1_565 S
V12    V20     9.999   .     S
V12    V16     9.999   1_556 S
V12    V19     9.999   .     S
V12    V14     9.999   1_565 S
V13    V9      9.999   1_565 S
V13    V11     9.999   1_556 S
V14    V12     9.999   1_545 S
V14    V10     9.999   1_556 S
V15    V11     9.999   1_545 S
V15    V9      9.999   1_554 S
V16    V10     9.999   1_565 S
V16    V12     9.999   1_554 S
V17    V6      9.999   1_655 S
V17    V8      9.999   1_545 S
V18    V7      9.999   1_455 S
V18    V5      9.999   1_545 S
V19    V8      9.999   1_455 S
V19    V6      9.999   1_565 S
V20    V5      9.999   1_655 S
V20    V7      9.999   1_565 S
V21    V3      9.999   1_554 S
V21    V1      9.999   1_455 S
V22    V2      9.999   1_556 S
V22    V4      9.999   1_455 S
V23    V1      9.999   1_556 S
V23    V3      9.999   1_655 S
V24    V4      9.999   1_554 S
V24    V2      9.999   1_655 S
