data_qom
_audit_creation_date              2019-09-10
_audit_creation_method            'Materials Studio'
_symmetry_space_group_name_H-M    'P1'
_symmetry_Int_Tables_number       1
_symmetry_cell_setting            triclinic
loop_
_symmetry_equiv_pos_as_xyz
  x,y,z
_cell_length_a                    34.6400
_cell_length_b                    34.6400
_cell_length_c                    28.2870
_cell_angle_alpha                 90.0000
_cell_angle_beta                  90.0000
_cell_angle_gamma                 120.0000
loop_
_atom_site_label
_atom_site_type_symbol
_atom_site_fract_x
_atom_site_fract_y
_atom_site_fract_z
_atom_site_U_iso_or_equiv
_atom_site_adp_type
_atom_site_occupancy
Er1    Er    0.11111   0.38890   0.91670   0.00000  Uiso   1.00
Er2    Er    0.61110   0.72221   0.91670   0.00000  Uiso   1.00
Er3    Er    0.27779   0.88889   0.91670   0.00000  Uiso   1.00
Er4    Er    0.61110   0.88889   0.58330   0.00000  Uiso   1.00
Er5    Er    0.27779   0.38890   0.58330   0.00000  Uiso   1.00
Er6    Er    0.11111   0.72221   0.58330   0.00000  Uiso   1.00
Er7    Er    0.88889   0.61110   0.08330   0.00000  Uiso   1.00
Er8    Er    0.38890   0.27779   0.08330   0.00000  Uiso   1.00
Er9    Er    0.72221   0.11111   0.08330   0.00000  Uiso   1.00
Er10   Er    0.38890   0.11111   0.41670   0.00000  Uiso   1.00
Er11   Er    0.72221   0.61110   0.41670   0.00000  Uiso   1.00
Er12   Er    0.88889   0.27779   0.41670   0.00000  Uiso   1.00
Er13   Er    0.00000   0.00000   0.25000   0.00000  Uiso   1.00
Er14   Er    0.00000   0.00000   0.75000   0.00000  Uiso   1.00
Er15   Er    0.33333   0.66667   0.25000   0.00000  Uiso   1.00
Er16   Er    0.66667   0.33333   0.75000   0.00000  Uiso   1.00
V17    V     0.33333   0.66667   0.75000   0.00000  Uiso   1.00
V18    V     0.66667   0.33333   0.25000   0.00000  Uiso   1.00
V19    V     0.16667   0.83333   0.25000   0.00000  Uiso   1.00
V20    V     0.16667   0.33333   0.25000   0.00000  Uiso   1.00
V21    V     0.66667   0.83333   0.25000   0.00000  Uiso   1.00
V22    V     0.83333   0.16667   0.75000   0.00000  Uiso   1.00
V23    V     0.83333   0.66667   0.75000   0.00000  Uiso   1.00
V24    V     0.33333   0.16667   0.75000   0.00000  Uiso   1.00
loop_
_geom_bond_atom_site_label_1
_geom_bond_atom_site_label_2
_geom_bond_distance
_geom_bond_site_symmetry_2
_ccdc_geom_bond_type
Er1    V17    10.000   .     S
Er1    V20    10.000   1_556 S
Er1    V22    10.001   1_455 S
Er2    V17    10.000   .     S
Er2    V21    10.000   1_556 S
Er2    V23    10.001   .     S
Er3    V17    10.000   .     S
Er3    V19    10.000   1_556 S
Er3    V24    10.001   1_565 S
Er4    V17    10.000   .     S
Er4    V21    10.000   .     S
Er4    V22    10.001   1_565 S
Er5    V17    10.000   .     S
Er5    V20    10.000   .     S
Er5    V24    10.001   .     S
Er6    V17    10.000   .     S
Er6    V19    10.000   .     S
Er6    V23    10.001   1_455 S
Er7    V18    10.000   .     S
Er7    V23    10.000   1_554 S
Er7    V19    10.001   1_655 S
Er8    V18    10.000   .     S
Er8    V24    10.000   1_554 S
Er8    V20    10.001   .     S
Er9    V18    10.000   .     S
Er9    V22    10.000   1_554 S
Er9    V21    10.001   1_545 S
Er10   V18    10.000   .     S
Er10   V24    10.000   .     S
Er10   V19    10.001   1_545 S
Er11   V18    10.000   .     S
Er11   V23    10.000   .     S
Er11   V21    10.001   .     S
Er12   V18    10.000   .     S
Er12   V22    10.000   .     S
Er12   V20    10.001   1_655 S
Er13   V21    10.000   1_445 S
Er13   V19    10.000   1_545 S
Er13   V20    10.000   .     S
Er14   V24    10.000   .     S
Er14   V22    10.000   1_455 S
Er14   V23    10.000   1_445 S
Er15   V19    10.000   .     S
Er15   V20    10.000   .     S
Er15   V21    10.000   .     S
Er16   V22    10.000   .     S
Er16   V23    10.000   .     S
Er16   V24    10.000   .     S
V19    Er3    10.000   1_554 S
V19    Er7    10.001   1_455 S
V19    Er10   10.001   1_565 S
V19    Er13   10.000   1_565 S
V20    Er1    10.000   1_554 S
V20    Er12   10.001   1_455 S
V21    Er2    10.000   1_554 S
V21    Er9    10.001   1_565 S
V21    Er13   10.000   1_665 S
V22    Er9    10.000   1_556 S
V22    Er1    10.001   1_655 S
V22    Er4    10.001   1_545 S
V22    Er14   10.000   1_655 S
V23    Er7    10.000   1_556 S
V23    Er6    10.001   1_655 S
V23    Er14   10.000   1_665 S
V24    Er8    10.000   1_556 S
V24    Er3    10.001   1_545 S
