data_qzd
_audit_creation_date              2019-09-09
_audit_creation_method            'Materials Studio'
_symmetry_space_group_name_H-M    'P1'
_symmetry_Int_Tables_number       1
_symmetry_cell_setting            triclinic
loop_
_symmetry_equiv_pos_as_xyz
  x,y,z
_cell_length_a                    30.0000
_cell_length_b                    30.0000
_cell_length_c                    30.0000
_cell_angle_alpha                 90.0000
_cell_angle_beta                  90.0000
_cell_angle_gamma                 120.0000
loop_
_atom_site_label
_atom_site_type_symbol
_atom_site_fract_x
_atom_site_fract_y
_atom_site_fract_z
_atom_site_U_iso_or_equiv
_atom_site_adp_type
_atom_site_occupancy
V1     V     0.00000   0.00000   0.00000   0.00000  Uiso   1.00
V2     V     0.00000   0.00000   0.66667   0.00000  Uiso   1.00
V3     V     0.00000   0.00000   0.33333   0.00000  Uiso   1.00
V4     V     0.33333  -0.00000   0.00000   0.00000  Uiso   1.00
V5     V     0.33333  -0.00000   0.66667   0.00000  Uiso   1.00
V6     V     0.33333  -0.00000   0.33333   0.00000  Uiso   1.00
V7     V     0.66667  -0.00000   0.00000   0.00000  Uiso   1.00
V8     V     0.66667  -0.00000   0.66667   0.00000  Uiso   1.00
V9     V     0.66667  -0.00000   0.33333   0.00000  Uiso   1.00
V10    V     0.00000   0.33333   0.00000   0.00000  Uiso   1.00
V11    V     0.00000   0.33333   0.66667   0.00000  Uiso   1.00
V12    V     0.00000   0.33333   0.33333   0.00000  Uiso   1.00
V13    V     0.33333   0.33333   0.00000   0.00000  Uiso   1.00
V14    V     0.33333   0.33333   0.66667   0.00000  Uiso   1.00
V15    V     0.33333   0.33333   0.33333   0.00000  Uiso   1.00
V16    V     0.66667   0.33333   0.00000   0.00000  Uiso   1.00
V17    V     0.66667   0.33333   0.66667   0.00000  Uiso   1.00
V18    V     0.66667   0.33333   0.33333   0.00000  Uiso   1.00
V19    V     0.00000   0.66667   0.00000   0.00000  Uiso   1.00
V20    V     0.00000   0.66667   0.66667   0.00000  Uiso   1.00
V21    V     0.00000   0.66667   0.33333   0.00000  Uiso   1.00
V22    V     0.33333   0.66667   0.00000   0.00000  Uiso   1.00
V23    V     0.33333   0.66667   0.66667   0.00000  Uiso   1.00
V24    V     0.33333   0.66667   0.33333   0.00000  Uiso   1.00
V25    V     0.66667   0.66667   0.00000   0.00000  Uiso   1.00
V26    V     0.66667   0.66667   0.66667   0.00000  Uiso   1.00
V27    V     0.66667   0.66667   0.33333   0.00000  Uiso   1.00
loop_
_geom_bond_atom_site_label_1
_geom_bond_atom_site_label_2
_geom_bond_distance
_geom_bond_site_symmetry_2
_ccdc_geom_bond_type
V1     V3     10.000   .     S
V1     V7     10.000   1_455 S
V1     V4     10.000   .     S
V1     V2     10.000   1_554 S
V2     V3     10.000   .     S
V2     V1     10.000   1_556 S
V2     V20    10.000   1_545 S
V2     V11    10.000   .     S
V3     V15    10.000   .     S
V3     V27    10.000   1_445 S
V4     V6     10.000   .     S
V4     V7     10.000   .     S
V4     V5     10.000   1_554 S
V5     V6     10.000   .     S
V5     V4     10.000   1_556 S
V5     V23    10.000   1_545 S
V5     V14    10.000   .     S
V6     V18    10.000   .     S
V6     V21    10.000   1_545 S
V7     V9     10.000   .     S
V7     V1     10.000   1_655 S
V7     V8     10.000   1_554 S
V8     V9     10.000   .     S
V8     V7     10.000   1_556 S
V8     V26    10.000   1_545 S
V8     V17    10.000   .     S
V9     V12    10.000   1_655 S
V9     V24    10.000   1_545 S
V10    V12    10.000   .     S
V10    V16    10.000   1_455 S
V10    V13    10.000   .     S
V10    V11    10.000   1_554 S
V11    V12    10.000   .     S
V11    V10    10.000   1_556 S
V11    V20    10.000   .     S
V12    V24    10.000   .     S
V12    V9     10.000   1_455 S
V13    V15    10.000   .     S
V13    V16    10.000   .     S
V13    V14    10.000   1_554 S
V14    V15    10.000   .     S
V14    V13    10.000   1_556 S
V14    V23    10.000   .     S
V15    V27    10.000   .     S
V16    V18    10.000   .     S
V16    V10    10.000   1_655 S
V16    V17    10.000   1_554 S
V17    V18    10.000   .     S
V17    V16    10.000   1_556 S
V17    V26    10.000   .     S
V18    V21    10.000   1_655 S
V19    V21    10.000   .     S
V19    V25    10.000   1_455 S
V19    V22    10.000   .     S
V19    V20    10.000   1_554 S
V20    V21    10.000   .     S
V20    V19    10.000   1_556 S
V20    V2     10.000   1_565 S
V21    V6     10.000   1_565 S
V21    V18    10.000   1_455 S
V22    V24    10.000   .     S
V22    V25    10.000   .     S
V22    V23    10.000   1_554 S
V23    V24    10.000   .     S
V23    V22    10.000   1_556 S
V23    V5     10.000   1_565 S
V24    V9     10.000   1_565 S
V25    V27    10.000   .     S
V25    V19    10.000   1_655 S
V25    V26    10.000   1_554 S
V26    V27    10.000   .     S
V26    V25    10.000   1_556 S
V26    V8     10.000   1_565 S
V27    V3     10.000   1_665 S
