data_sab
_audit_creation_date              2018-10-08
_audit_creation_method            'Materials Studio'
_symmetry_space_group_name_H-M    'P1'
_symmetry_Int_Tables_number       1
_symmetry_cell_setting            triclinic
loop_
_symmetry_equiv_pos_as_xyz
  x,y,z
_cell_length_a                    35.7180
_cell_length_b                    35.7180
_cell_length_c                    25.5880
_cell_angle_alpha                 90.0000
_cell_angle_beta                  90.0000
_cell_angle_gamma                 90.0000
loop_
_atom_site_label
_atom_site_type_symbol
_atom_site_fract_x
_atom_site_fract_y
_atom_site_fract_z
_atom_site_U_iso_or_equiv
_atom_site_adp_type
_atom_site_occupancy
V1     V     0.07740   0.27690   0.06470   0.00000  Uiso   1.00
V2     V     0.57740   0.77690   0.56470   0.00000  Uiso   1.00
V3     V     0.92260   0.72310   0.06470   0.00000  Uiso   1.00
V4     V     0.42260   0.22310   0.56470   0.00000  Uiso   1.00
V5     V     0.72310   0.07740   0.06470   0.00000  Uiso   1.00
V6     V     0.22310   0.57740   0.56470   0.00000  Uiso   1.00
V7     V     0.27690   0.92260   0.06470   0.00000  Uiso   1.00
V8     V     0.77690   0.42260   0.56470   0.00000  Uiso   1.00
V9     V     0.07740   0.72310   0.56470   0.00000  Uiso   1.00
V10    V     0.57740   0.22310   0.06470   0.00000  Uiso   1.00
V11    V     0.92260   0.27690   0.56470   0.00000  Uiso   1.00
V12    V     0.42260   0.77690   0.06470   0.00000  Uiso   1.00
V13    V     0.72310   0.92260   0.56470   0.00000  Uiso   1.00
V14    V     0.22310   0.42260   0.06470   0.00000  Uiso   1.00
V15    V     0.27690   0.07740   0.56470   0.00000  Uiso   1.00
V16    V     0.77690   0.57740   0.06470   0.00000  Uiso   1.00
Er17   Er    0.18040   0.31960   0.42290   0.00000  Uiso   1.00
Er18   Er    0.81960   0.68040   0.42290   0.00000  Uiso   1.00
Er19   Er    0.31960   0.18040   0.92290   0.00000  Uiso   1.00
Er20   Er    0.68040   0.18040   0.42290   0.00000  Uiso   1.00
Er21   Er    0.31960   0.81960   0.42290   0.00000  Uiso   1.00
Er22   Er    0.18040   0.68040   0.92290   0.00000  Uiso   1.00
Er23   Er    0.81960   0.31960   0.92290   0.00000  Uiso   1.00
Er24   Er    0.68040   0.81960   0.92290   0.00000  Uiso   1.00
loop_
_geom_bond_atom_site_label_1
_geom_bond_atom_site_label_2
_geom_bond_distance
_geom_bond_site_symmetry_2
_ccdc_geom_bond_type
V1     Er17    9.993   .     S
V1     Er19    9.994   1_554 S
V1     Er23   10.014   1_454 S
V2     Er24    9.993   .     S
V2     Er18    9.994   .     S
V2     Er21   10.014   .     S
V3     Er18    9.993   .     S
V3     Er24    9.994   1_554 S
V3     Er22   10.014   1_654 S
V4     Er19    9.993   .     S
V4     Er17    9.994   .     S
V4     Er20   10.014   .     S
V5     Er20    9.993   .     S
V5     Er23    9.994   1_554 S
V5     Er24   10.014   1_544 S
V6     Er22    9.993   .     S
V6     Er21    9.994   .     S
V6     Er17   10.014   .     S
V7     Er21    9.993   .     S
V7     Er22    9.994   1_554 S
V7     Er19   10.014   1_564 S
V8     Er23    9.993   .     S
V8     Er20    9.994   .     S
V8     Er18   10.014   .     S
V9     Er22    9.993   .     S
V9     Er21    9.994   .     S
V9     Er18   10.014   1_455 S
V10    Er20    9.993   .     S
V10    Er23    9.994   1_554 S
V10    Er19   10.014   1_554 S
V11    Er23    9.993   .     S
V11    Er20    9.994   .     S
V11    Er17   10.014   1_655 S
V12    Er21    9.993   .     S
V12    Er22    9.994   1_554 S
V12    Er24   10.014   1_554 S
V13    Er24    9.993   .     S
V13    Er18    9.994   .     S
V13    Er20   10.014   1_565 S
V14    Er17    9.993   .     S
V14    Er19    9.994   1_554 S
V14    Er22   10.014   1_554 S
V15    Er19    9.993   .     S
V15    Er17    9.994   .     S
V15    Er21   10.014   1_545 S
V16    Er18    9.993   .     S
V16    Er24    9.994   1_554 S
V16    Er23   10.014   1_554 S
Er17   V11    10.014   1_455 S
Er18   V9     10.014   1_655 S
Er19   V14     9.994   1_556 S
Er19   V1      9.994   1_556 S
Er19   V10    10.014   1_556 S
Er19   V7     10.014   1_546 S
Er20   V13    10.014   1_545 S
Er21   V15    10.014   1_565 S
Er22   V12     9.994   1_556 S
Er22   V7      9.994   1_556 S
Er22   V14    10.014   1_556 S
Er22   V3     10.014   1_456 S
Er23   V10     9.994   1_556 S
Er23   V5      9.994   1_556 S
Er23   V16    10.014   1_556 S
Er23   V1     10.014   1_656 S
Er24   V16     9.994   1_556 S
Er24   V3      9.994   1_556 S
Er24   V12    10.014   1_556 S
Er24   V5     10.014   1_566 S
