data_sit\(2)
_audit_creation_date              2019-05-28
_audit_creation_method            'Materials Studio'
_symmetry_space_group_name_H-M    'P1'
_symmetry_Int_Tables_number       1
_symmetry_cell_setting            triclinic
loop_
_symmetry_equiv_pos_as_xyz
  x,y,z
_cell_length_a                    13.0930
_cell_length_b                    26.1860
_cell_length_c                    22.6780
_cell_angle_alpha                 90.0000
_cell_angle_beta                  90.0000
_cell_angle_gamma                 90.0000
loop_
_atom_site_label
_atom_site_type_symbol
_atom_site_fract_x
_atom_site_fract_y
_atom_site_fract_z
_atom_site_U_iso_or_equiv
_atom_site_adp_type
_atom_site_occupancy
V1     V     0.50000   0.25000   0.16667   0.00000  Uiso   1.00
V2     V     0.00000   0.75000   0.66667   0.00000  Uiso   1.00
V3     V     0.50000   0.75000   0.16667   0.00000  Uiso   1.00
V4     V     0.00000   0.25000   0.66667   0.00000  Uiso   1.00
Er5    Er    0.00000   0.00000   0.00000   0.00000  Uiso   1.00
Er6    Er    0.50000   0.50000   0.50000   0.00000  Uiso   1.00
loop_
_geom_bond_atom_site_label_1
_geom_bond_atom_site_label_2
_geom_bond_distance
_geom_bond_site_symmetry_2
_ccdc_geom_bond_type
V1     Er6    10.000   .     S
V1     Er5    10.000   .     S
V1     Er5    10.000   1_655 S
V2     Er5    10.000   1_566 S
V2     Er6    10.000   1_455 S
V3     Er6    10.000   .     S
V3     Er5    10.000   1_665 S
V3     Er5    10.000   1_565 S
V4     Er6    10.000   .     S
V4     Er5    10.000   1_556 S
V4     Er6    10.000   1_455 S
Er5    V1     10.000   1_455 S
Er5    V2     10.000   1_544 S
Er5    V3     10.000   1_445 S
Er5    V3     10.000   1_545 S
Er5    V4     10.000   1_554 S
Er6    V2     10.000   1_655 S
Er6    V4     10.000   1_655 S
V2     Er6    10.000   .     S
