data_SSA_4_4
_audit_creation_date              2018-09-26
_audit_creation_method            'Materials Studio'
_symmetry_space_group_name_H-M    'P1'
_symmetry_Int_Tables_number       1
_symmetry_cell_setting            triclinic
loop_
_symmetry_equiv_pos_as_xyz
  x,y,z
_cell_length_a                    32.6600
_cell_length_b                    32.6600
_cell_length_c                    23.0940
_cell_angle_alpha                 90.0000
_cell_angle_beta                  90.0000
_cell_angle_gamma                 120.0000
loop_
_atom_site_label
_atom_site_type_symbol
_atom_site_fract_x
_atom_site_fract_y
_atom_site_fract_z
_atom_site_U_iso_or_equiv
_atom_site_adp_type
_atom_site_occupancy
Er1    Er    0.00000   0.50000   0.00000   0.00000  Uiso   1.00
Er2    Er    0.50000   0.50000   0.00000   0.00000  Uiso   1.00
Er3    Er    0.50000  -0.00000   0.00000   0.00000  Uiso   1.00
Er4    Er    0.00000   0.50000   0.50000   0.00000  Uiso   1.00
Er5    Er    0.50000   0.50000   0.50000   0.00000  Uiso   1.00
Er6    Er    0.50000  -0.00000   0.50000   0.00000  Uiso   1.00
V7     V     0.25000   0.50000   0.25000   0.00000  Uiso   1.00
V8     V     0.50000   0.75000   0.25000   0.00000  Uiso   1.00
V9     V     0.25000   0.75000   0.25000   0.00000  Uiso   1.00
V10    V     0.75000   0.50000   0.75000   0.00000  Uiso   1.00
V11    V     0.50000   0.25000   0.75000   0.00000  Uiso   1.00
V12    V     0.75000   0.25000   0.75000   0.00000  Uiso   1.00
loop_
_geom_bond_atom_site_label_1
_geom_bond_atom_site_label_2
_geom_bond_distance
_geom_bond_site_symmetry_2
_ccdc_geom_bond_type
Er1    V9     10.000   .     S
Er1    V10    10.000   1_454 S
Er1    V12    10.000   1_454 S
Er1    V7     10.000   .     S
Er2    V7     10.000   .     S
Er2    V11    10.000   1_554 S
Er2    V10    10.000   1_554 S
Er2    V8     10.000   .     S
Er3    V8     10.000   1_545 S
Er3    V12    10.000   1_554 S
Er3    V11    10.000   1_554 S
Er3    V9     10.000   1_545 S
Er4    V12    10.000   1_455 S
Er4    V7     10.000   .     S
Er4    V9     10.000   .     S
Er4    V10    10.000   1_455 S
Er5    V10    10.000   .     S
Er5    V8     10.000   .     S
Er5    V7     10.000   .     S
Er5    V11    10.000   .     S
Er6    V11    10.000   .     S
Er6    V9     10.000   1_545 S
Er6    V8     10.000   1_545 S
Er6    V12    10.000   .     S
V8     Er3    10.000   1_565 S
V8     Er6    10.000   1_565 S
V9     Er6    10.000   1_565 S
V9     Er3    10.000   1_565 S
V10    Er1    10.000   1_656 S
V10    Er2    10.000   1_556 S
V10    Er4    10.000   1_655 S
V11    Er2    10.000   1_556 S
V11    Er3    10.000   1_556 S
V12    Er4    10.000   1_655 S
V12    Er3    10.000   1_556 S
V12    Er1    10.000   1_656 S
