data_ssc
_audit_creation_date              2019-08-20
_audit_creation_method            'Materials Studio'
_symmetry_space_group_name_H-M    'P1'
_symmetry_Int_Tables_number       1
_symmetry_cell_setting            triclinic
loop_
_symmetry_equiv_pos_as_xyz
  x,y,z
_cell_length_a                    21.3800
_cell_length_b                    21.3800
_cell_length_c                    21.3800
_cell_angle_alpha                 90.0000
_cell_angle_beta                  90.0000
_cell_angle_gamma                 90.0000
loop_
_atom_site_label
_atom_site_type_symbol
_atom_site_fract_x
_atom_site_fract_y
_atom_site_fract_z
_atom_site_U_iso_or_equiv
_atom_site_adp_type
_atom_site_occupancy
Er1    Er    0.00000   0.25000   0.12500   0.00000  Uiso   1.00
Er2    Er    0.50000   0.75000   0.62500   0.00000  Uiso   1.00
Er3    Er    0.00000   0.75000   0.37500   0.00000  Uiso   1.00
Er4    Er    0.50000   0.25000   0.87500   0.00000  Uiso   1.00
Er5    Er    0.12500   0.00000   0.25000   0.00000  Uiso   1.00
Er6    Er    0.62500   0.50000   0.75000   0.00000  Uiso   1.00
Er7    Er    0.37500   0.00000   0.75000   0.00000  Uiso   1.00
Er8    Er    0.87500   0.50000   0.25000   0.00000  Uiso   1.00
Er9    Er    0.25000   0.12500   0.00000   0.00000  Uiso   1.00
Er10   Er    0.75000   0.62500   0.50000   0.00000  Uiso   1.00
Er11   Er    0.75000   0.37500   0.00000   0.00000  Uiso   1.00
Er12   Er    0.25000   0.87500   0.50000   0.00000  Uiso   1.00
V13    V     0.00000   0.25000   0.62500   0.00000  Uiso   1.00
V14    V     0.50000   0.75000   0.12500   0.00000  Uiso   1.00
V15    V     0.00000   0.75000   0.87500   0.00000  Uiso   1.00
V16    V     0.50000   0.25000   0.37500   0.00000  Uiso   1.00
V17    V     0.62500   0.00000   0.25000   0.00000  Uiso   1.00
V18    V     0.12500   0.50000   0.75000   0.00000  Uiso   1.00
V19    V     0.87500   0.00000   0.75000   0.00000  Uiso   1.00
V20    V     0.37500   0.50000   0.25000   0.00000  Uiso   1.00
V21    V     0.25000   0.62500   0.00000   0.00000  Uiso   1.00
V22    V     0.75000   0.12500   0.50000   0.00000  Uiso   1.00
V23    V     0.75000   0.87500   0.00000   0.00000  Uiso   1.00
V24    V     0.25000   0.37500   0.50000   0.00000  Uiso   1.00
loop_
_geom_bond_atom_site_label_1
_geom_bond_atom_site_label_2
_geom_bond_distance
_geom_bond_site_symmetry_2
_ccdc_geom_bond_type
Er1    V24    10.000   .     S
Er1    V18    10.000   1_554 S
Er1    V22    10.000   1_455 S
Er1    V19    10.000   1_454 S
Er2    V21    10.000   1_556 S
Er2    V20    10.000   .     S
Er2    V23    10.000   1_556 S
Er2    V17    10.000   1_565 S
Er3    V23    10.000   1_455 S
Er3    V19    10.000   1_465 S
Er3    V21    10.000   .     S
Er3    V18    10.000   .     S
Er4    V22    10.000   .     S
Er4    V17    10.000   1_556 S
Er4    V24    10.000   .     S
Er4    V20    10.000   1_556 S
Er5    V16    10.000   .     S
Er5    V22    10.000   1_455 S
Er5    V14    10.000   1_545 S
Er5    V23    10.000   1_445 S
Er6    V13    10.000   1_655 S
Er6    V24    10.000   .     S
Er6    V15    10.000   1_655 S
Er6    V21    10.000   1_556 S
Er7    V15    10.000   1_545 S
Er7    V23    10.000   1_546 S
Er7    V13    10.000   .     S
Er7    V22    10.000   .     S
Er8    V14    10.000   .     S
Er8    V21    10.000   1_655 S
Er8    V16    10.000   .     S
Er8    V24    10.000   1_655 S
Er9    V20    10.000   .     S
Er9    V14    10.000   1_545 S
Er9    V18    10.000   1_554 S
Er9    V15    10.000   1_544 S
Er10   V17    10.000   1_565 S
Er10   V16    10.000   .     S
Er10   V19    10.000   1_565 S
Er10   V13    10.000   1_655 S
Er11   V19    10.000   1_554 S
Er11   V15    10.000   1_654 S
Er11   V17    10.000   .     S
Er11   V14    10.000   .     S
Er12   V18    10.000   .     S
Er12   V13    10.000   1_565 S
Er12   V20    10.000   .     S
Er12   V16    10.000   1_565 S
V13    Er6    10.000   1_455 S
V13    Er12   10.000   1_545 S
V13    Er10   10.000   1_455 S
V14    Er9    10.000   1_565 S
V14    Er5    10.000   1_565 S
V15    Er7    10.000   1_565 S
V15    Er11   10.000   1_456 S
V15    Er6    10.000   1_455 S
V15    Er9    10.000   1_566 S
V16    Er12   10.000   1_545 S
V17    Er10   10.000   1_545 S
V17    Er4    10.000   1_554 S
V17    Er2    10.000   1_545 S
V18    Er1    10.000   1_556 S
V18    Er9    10.000   1_556 S
V19    Er11   10.000   1_556 S
V19    Er3    10.000   1_645 S
V19    Er10   10.000   1_545 S
V19    Er1    10.000   1_656 S
V20    Er4    10.000   1_554 S
V21    Er2    10.000   1_554 S
V21    Er8    10.000   1_455 S
V21    Er6    10.000   1_554 S
V22    Er5    10.000   1_655 S
V22    Er1    10.000   1_655 S
V23    Er3    10.000   1_655 S
V23    Er7    10.000   1_564 S
V23    Er2    10.000   1_554 S
V23    Er5    10.000   1_665 S
V24    Er8    10.000   1_455 S
