data_sst
_audit_creation_date              2019-09-09
_audit_creation_method            'Materials Studio'
_symmetry_space_group_name_H-M    'P1'
_symmetry_Int_Tables_number       1
_symmetry_cell_setting            triclinic
loop_
_symmetry_equiv_pos_as_xyz
  x,y,z
_cell_length_a                    40.0000
_cell_length_b                    40.0000
_cell_length_c                    40.0000
_cell_angle_alpha                 90.0000
_cell_angle_beta                  90.0000
_cell_angle_gamma                 90.0000
loop_
_atom_site_label
_atom_site_type_symbol
_atom_site_fract_x
_atom_site_fract_y
_atom_site_fract_z
_atom_site_U_iso_or_equiv
_atom_site_adp_type
_atom_site_occupancy
V1     V     0.37500   0.37500   0.12500   0.00000  Uiso   1.00
V2     V     0.87500   0.87500   0.62500   0.00000  Uiso   1.00
V3     V     0.62500   0.62500   0.12500   0.00000  Uiso   1.00
V4     V     0.12500   0.12500   0.62500   0.00000  Uiso   1.00
V5     V     0.62500   0.37500   0.87500   0.00000  Uiso   1.00
V6     V     0.12500   0.87500   0.37500   0.00000  Uiso   1.00
V7     V     0.37500   0.62500   0.87500   0.00000  Uiso   1.00
V8     V     0.87500   0.12500   0.37500   0.00000  Uiso   1.00
V9     V     0.12500   0.37500   0.37500   0.00000  Uiso   1.00
V10    V     0.62500   0.87500   0.87500   0.00000  Uiso   1.00
V11    V     0.12500   0.62500   0.62500   0.00000  Uiso   1.00
V12    V     0.62500   0.12500   0.12500   0.00000  Uiso   1.00
V13    V     0.87500   0.62500   0.37500   0.00000  Uiso   1.00
V14    V     0.37500   0.12500   0.87500   0.00000  Uiso   1.00
V15    V     0.87500   0.37500   0.62500   0.00000  Uiso   1.00
V16    V     0.37500   0.87500   0.12500   0.00000  Uiso   1.00
V17    V     0.37500   0.12500   0.37500   0.00000  Uiso   1.00
V18    V     0.87500   0.62500   0.87500   0.00000  Uiso   1.00
V19    V     0.62500   0.12500   0.62500   0.00000  Uiso   1.00
V20    V     0.12500   0.62500   0.12500   0.00000  Uiso   1.00
V21    V     0.37500   0.87500   0.62500   0.00000  Uiso   1.00
V22    V     0.87500   0.37500   0.12500   0.00000  Uiso   1.00
V23    V     0.62500   0.87500   0.37500   0.00000  Uiso   1.00
V24    V     0.12500   0.37500   0.87500   0.00000  Uiso   1.00
V25    V     0.37500   0.37500   0.87500   0.00000  Uiso   1.00
V26    V     0.87500   0.87500   0.37500   0.00000  Uiso   1.00
V27    V     0.62500   0.62500   0.87500   0.00000  Uiso   1.00
V28    V     0.12500   0.12500   0.37500   0.00000  Uiso   1.00
V29    V     0.37500   0.62500   0.12500   0.00000  Uiso   1.00
V30    V     0.87500   0.12500   0.62500   0.00000  Uiso   1.00
V31    V     0.62500   0.37500   0.12500   0.00000  Uiso   1.00
V32    V     0.12500   0.87500   0.62500   0.00000  Uiso   1.00
V33    V     0.37500   0.12500   0.62500   0.00000  Uiso   1.00
V34    V     0.87500   0.62500   0.12500   0.00000  Uiso   1.00
V35    V     0.62500   0.12500   0.37500   0.00000  Uiso   1.00
V36    V     0.12500   0.62500   0.87500   0.00000  Uiso   1.00
V37    V     0.62500   0.87500   0.62500   0.00000  Uiso   1.00
V38    V     0.12500   0.37500   0.12500   0.00000  Uiso   1.00
V39    V     0.37500   0.87500   0.37500   0.00000  Uiso   1.00
V40    V     0.87500   0.37500   0.87500   0.00000  Uiso   1.00
V41    V     0.12500   0.37500   0.62500   0.00000  Uiso   1.00
V42    V     0.62500   0.87500   0.12500   0.00000  Uiso   1.00
V43    V     0.12500   0.62500   0.37500   0.00000  Uiso   1.00
V44    V     0.62500   0.12500   0.87500   0.00000  Uiso   1.00
V45    V     0.87500   0.37500   0.37500   0.00000  Uiso   1.00
V46    V     0.37500   0.87500   0.87500   0.00000  Uiso   1.00
V47    V     0.87500   0.62500   0.62500   0.00000  Uiso   1.00
V48    V     0.37500   0.12500   0.12500   0.00000  Uiso   1.00
loop_
_geom_bond_atom_site_label_1
_geom_bond_atom_site_label_2
_geom_bond_distance
_geom_bond_site_symmetry_2
_ccdc_geom_bond_type
V1     V29    10.000   .     S
V1     V31    10.000   .     S
V1     V48    10.000   .     S
V1     V38    10.000   .     S
V2     V30    10.000   1_565 S
V2     V32    10.000   1_655 S
V2     V47    10.000   .     S
V2     V37    10.000   .     S
V3     V31    10.000   .     S
V3     V29    10.000   .     S
V3     V42    10.000   .     S
V3     V34    10.000   .     S
V4     V32    10.000   1_545 S
V4     V30    10.000   1_455 S
V4     V41    10.000   .     S
V4     V33    10.000   .     S
V5     V27    10.000   .     S
V5     V25    10.000   .     S
V5     V44    10.000   .     S
V5     V40    10.000   .     S
V6     V28    10.000   1_565 S
V6     V26    10.000   1_455 S
V6     V43    10.000   .     S
V6     V39    10.000   .     S
V7     V25    10.000   .     S
V7     V27    10.000   .     S
V7     V46    10.000   .     S
V7     V36    10.000   .     S
V8     V26    10.000   1_545 S
V8     V28    10.000   1_655 S
V8     V45    10.000   .     S
V8     V35    10.000   .     S
V9     V41    10.000   .     S
V9     V43    10.000   .     S
V9     V38    10.000   .     S
V9     V28    10.000   .     S
V10    V42    10.000   1_556 S
V10    V44    10.000   1_565 S
V10    V37    10.000   .     S
V10    V27    10.000   .     S
V11    V43    10.000   .     S
V11    V41    10.000   .     S
V11    V36    10.000   .     S
V11    V32    10.000   .     S
V12    V44    10.000   1_554 S
V12    V42    10.000   1_545 S
V12    V35    10.000   .     S
V12    V31    10.000   .     S
V13    V47    10.000   .     S
V13    V45    10.000   .     S
V13    V34    10.000   .     S
V13    V26    10.000   .     S
V14    V48    10.000   1_556 S
V14    V46    10.000   1_545 S
V14    V33    10.000   .     S
V14    V25    10.000   .     S
V15    V45    10.000   .     S
V15    V47    10.000   .     S
V15    V40    10.000   .     S
V15    V30    10.000   .     S
V16    V46    10.000   1_554 S
V16    V48    10.000   1_565 S
V16    V39    10.000   .     S
V16    V29    10.000   .     S
V17    V35    10.000   .     S
V17    V33    10.000   .     S
V17    V28    10.000   .     S
V17    V48    10.000   .     S
V18    V36    10.000   1_655 S
V18    V34    10.000   1_556 S
V18    V27    10.000   .     S
V18    V47    10.000   .     S
V19    V33    10.000   .     S
V19    V35    10.000   .     S
V19    V30    10.000   .     S
V19    V44    10.000   .     S
V20    V34    10.000   1_455 S
V20    V36    10.000   1_554 S
V20    V29    10.000   .     S
V20    V43    10.000   .     S
V21    V37    10.000   .     S
V21    V39    10.000   .     S
V21    V32    10.000   .     S
V21    V46    10.000   .     S
V22    V38    10.000   1_655 S
V22    V40    10.000   1_554 S
V22    V31    10.000   .     S
V22    V45    10.000   .     S
V23    V39    10.000   .     S
V23    V37    10.000   .     S
V23    V26    10.000   .     S
V23    V42    10.000   .     S
V24    V40    10.000   1_455 S
V24    V38    10.000   1_556 S
V24    V25    10.000   .     S
V24    V41    10.000   .     S
V26    V6     10.000   1_655 S
V26    V8     10.000   1_565 S
V28    V8     10.000   1_455 S
V28    V6     10.000   1_545 S
V30    V4     10.000   1_655 S
V30    V2     10.000   1_545 S
V32    V2     10.000   1_455 S
V32    V4     10.000   1_565 S
V34    V18    10.000   1_554 S
V34    V20    10.000   1_655 S
V36    V20    10.000   1_556 S
V36    V18    10.000   1_455 S
V38    V24    10.000   1_554 S
V38    V22    10.000   1_455 S
V40    V22    10.000   1_556 S
V40    V24    10.000   1_655 S
V42    V12    10.000   1_565 S
V42    V10    10.000   1_554 S
V44    V10    10.000   1_545 S
V44    V12    10.000   1_556 S
V46    V14    10.000   1_565 S
V46    V16    10.000   1_556 S
V48    V16    10.000   1_545 S
V48    V14    10.000   1_554 S
