data_sty
_audit_creation_date              2018-06-25
_audit_creation_method            'Materials Studio'
_symmetry_space_group_name_H-M    'P1'
_symmetry_Int_Tables_number       1
_symmetry_cell_setting            triclinic
loop_
_symmetry_equiv_pos_as_xyz
  x,y,z
_cell_length_a                    36.0110
_cell_length_b                    36.0110
_cell_length_c                    37.4060
_cell_angle_alpha                 90.0000
_cell_angle_beta                  90.0000
_cell_angle_gamma                 120.0000
loop_
_atom_site_label
_atom_site_type_symbol
_atom_site_fract_x
_atom_site_fract_y
_atom_site_fract_z
_atom_site_U_iso_or_equiv
_atom_site_adp_type
_atom_site_occupancy
V1     V     0.49640   0.24820   0.11630   0.00000  Uiso   1.00
V2     V     0.75180   0.24820   0.11630   0.00000  Uiso   1.00
V3     V     0.75180   0.50360   0.11630   0.00000  Uiso   1.00
V4     V     0.50360   0.75180   0.61630   0.00000  Uiso   1.00
V5     V     0.24820   0.75180   0.61630   0.00000  Uiso   1.00
V6     V     0.24820   0.49640   0.61630   0.00000  Uiso   1.00
V7     V     0.24820   0.49640   0.88370   0.00000  Uiso   1.00
V8     V     0.24820   0.75180   0.88370   0.00000  Uiso   1.00
V9     V     0.50360   0.75180   0.88370   0.00000  Uiso   1.00
V10    V     0.75180   0.50360   0.38370   0.00000  Uiso   1.00
V11    V     0.75180   0.24820   0.38370   0.00000  Uiso   1.00
V12    V     0.49640   0.24820   0.38370   0.00000  Uiso   1.00
Er13   Er    0.00000   0.50000   0.00000   0.00000  Uiso   1.00
Er14   Er    0.50000   0.50000   0.00000   0.00000  Uiso   1.00
Er15   Er    0.50000   0.00000   0.00000   0.00000  Uiso   1.00
Er16   Er    0.00000   0.50000   0.50000   0.00000  Uiso   1.00
Er17   Er    0.50000   0.50000   0.50000   0.00000  Uiso   1.00
Er18   Er    0.50000   0.00000   0.50000   0.00000  Uiso   1.00
loop_
_geom_bond_atom_site_label_1
_geom_bond_atom_site_label_2
_geom_bond_distance
_geom_bond_site_symmetry_2
_ccdc_geom_bond_type
V1     Er14    9.999   .     S
V1     Er15    9.999   .     S
V1     V12    10.002   .     S
V2     Er15    9.999   .     S
V2     Er13    9.999   1_655 S
V2     V11    10.002   .     S
V3     Er13    9.999   1_655 S
V3     Er14    9.999   .     S
V3     V10    10.002   .     S
V4     Er17    9.999   .     S
V4     Er18    9.999   1_565 S
V4     V9     10.002   .     S
V5     Er18    9.999   1_565 S
V5     Er16    9.999   .     S
V5     V8     10.002   .     S
V6     Er16    9.999   .     S
V6     Er17    9.999   .     S
V6     V7     10.002   .     S
V7     Er14    9.999   1_556 S
V7     Er13    9.999   1_556 S
V8     Er13    9.999   1_556 S
V8     Er15    9.999   1_566 S
V9     Er15    9.999   1_566 S
V9     Er14    9.999   1_556 S
V10    Er17    9.999   .     S
V10    Er16    9.999   1_655 S
V11    Er16    9.999   1_655 S
V11    Er18    9.999   .     S
V12    Er18    9.999   .     S
V12    Er17    9.999   .     S
Er13   V3      9.999   1_455 S
Er13   V8      9.999   1_554 S
Er13   V7      9.999   1_554 S
Er13   V2      9.999   1_455 S
Er14   V7      9.999   1_554 S
Er14   V9      9.999   1_554 S
Er15   V9      9.999   1_544 S
Er15   V8      9.999   1_544 S
Er16   V11     9.999   1_455 S
Er16   V10     9.999   1_455 S
Er18   V5      9.999   1_545 S
Er18   V4      9.999   1_545 S
