data_tbo
_audit_creation_date              2019-09-09
_audit_creation_method            'Materials Studio'
_symmetry_space_group_name_H-M    'P1'
_symmetry_Int_Tables_number       1
_symmetry_cell_setting            triclinic
loop_
_symmetry_equiv_pos_as_xyz
  x,y,z
_cell_length_a                    48.9900
_cell_length_b                    48.9900
_cell_length_c                    48.9900
_cell_angle_alpha                 90.0000
_cell_angle_beta                  90.0000
_cell_angle_gamma                 90.0000
loop_
_atom_site_label
_atom_site_type_symbol
_atom_site_fract_x
_atom_site_fract_y
_atom_site_fract_z
_atom_site_U_iso_or_equiv
_atom_site_adp_type
_atom_site_occupancy
Er1    Er    0.33333   0.33333   0.33333   0.00000  Uiso   1.00
Er2    Er    0.33333   0.83333   0.83333   0.00000  Uiso   1.00
Er3    Er    0.83333   0.33333   0.83333   0.00000  Uiso   1.00
Er4    Er    0.83333   0.83333   0.33333   0.00000  Uiso   1.00
Er5    Er    0.66667   0.66667   0.33333   0.00000  Uiso   1.00
Er6    Er    0.66667   0.16667   0.83333   0.00000  Uiso   1.00
Er7    Er    0.16667   0.66667   0.83333   0.00000  Uiso   1.00
Er8    Er    0.16667   0.16667   0.33333   0.00000  Uiso   1.00
Er9    Er    0.66667   0.33333   0.66667   0.00000  Uiso   1.00
Er10   Er    0.66667   0.83333   0.16667   0.00000  Uiso   1.00
Er11   Er    0.16667   0.33333   0.16667   0.00000  Uiso   1.00
Er12   Er    0.16667   0.83333   0.66667   0.00000  Uiso   1.00
Er13   Er    0.33333   0.66667   0.66667   0.00000  Uiso   1.00
Er14   Er    0.33333   0.16667   0.16667   0.00000  Uiso   1.00
Er15   Er    0.83333   0.66667   0.16667   0.00000  Uiso   1.00
Er16   Er    0.83333   0.16667   0.66667   0.00000  Uiso   1.00
Er17   Er    0.33333   0.33333   0.66667   0.00000  Uiso   1.00
Er18   Er    0.33333   0.83333   0.16667   0.00000  Uiso   1.00
Er19   Er    0.83333   0.33333   0.16667   0.00000  Uiso   1.00
Er20   Er    0.83333   0.83333   0.66667   0.00000  Uiso   1.00
Er21   Er    0.66667   0.66667   0.66667   0.00000  Uiso   1.00
Er22   Er    0.66667   0.16667   0.16667   0.00000  Uiso   1.00
Er23   Er    0.16667   0.66667   0.16667   0.00000  Uiso   1.00
Er24   Er    0.16667   0.16667   0.66667   0.00000  Uiso   1.00
Er25   Er    0.33333   0.66667   0.33333   0.00000  Uiso   1.00
Er26   Er    0.33333   0.16667   0.83333   0.00000  Uiso   1.00
Er27   Er    0.83333   0.66667   0.83333   0.00000  Uiso   1.00
Er28   Er    0.83333   0.16667   0.33333   0.00000  Uiso   1.00
Er29   Er    0.66667   0.33333   0.33333   0.00000  Uiso   1.00
Er30   Er    0.66667   0.83333   0.83333   0.00000  Uiso   1.00
Er31   Er    0.16667   0.33333   0.83333   0.00000  Uiso   1.00
Er32   Er    0.16667   0.83333   0.33333   0.00000  Uiso   1.00
V33    V     0.25000   0.00000   0.25000   0.00000  Uiso   1.00
V34    V     0.25000   0.50000   0.75000   0.00000  Uiso   1.00
V35    V     0.75000   0.00000   0.25000   0.00000  Uiso   1.00
V36    V     0.75000   0.50000   0.75000   0.00000  Uiso   1.00
V37    V     0.25000   0.50000   0.25000   0.00000  Uiso   1.00
V38    V     0.75000   0.00000   0.75000   0.00000  Uiso   1.00
V39    V     0.75000   0.50000   0.25000   0.00000  Uiso   1.00
V40    V     0.25000   0.00000   0.75000   0.00000  Uiso   1.00
V41    V     0.25000   0.25000   0.00000   0.00000  Uiso   1.00
V42    V     0.25000   0.75000   0.50000   0.00000  Uiso   1.00
V43    V     0.25000   0.75000   0.00000   0.00000  Uiso   1.00
V44    V     0.25000   0.25000   0.50000   0.00000  Uiso   1.00
V45    V     0.75000   0.75000   0.00000   0.00000  Uiso   1.00
V46    V     0.75000   0.25000   0.50000   0.00000  Uiso   1.00
V47    V     0.75000   0.25000   0.00000   0.00000  Uiso   1.00
V48    V     0.75000   0.75000   0.50000   0.00000  Uiso   1.00
V49    V     0.00000   0.25000   0.25000   0.00000  Uiso   1.00
V50    V     0.50000   0.25000   0.75000   0.00000  Uiso   1.00
V51    V     0.00000   0.25000   0.75000   0.00000  Uiso   1.00
V52    V     0.50000   0.25000   0.25000   0.00000  Uiso   1.00
V53    V     0.00000   0.75000   0.75000   0.00000  Uiso   1.00
V54    V     0.50000   0.75000   0.25000   0.00000  Uiso   1.00
V55    V     0.00000   0.75000   0.25000   0.00000  Uiso   1.00
V56    V     0.50000   0.75000   0.75000   0.00000  Uiso   1.00
loop_
_geom_bond_atom_site_label_1
_geom_bond_atom_site_label_2
_geom_bond_distance
_geom_bond_site_symmetry_2
_ccdc_geom_bond_type
Er1    V37    10.000   .     S
Er1    V44    10.000   .     S
Er1    V52    10.000   .     S
Er2    V56    10.000   .     S
Er2    V40    10.000   1_565 S
Er2    V43    10.000   1_556 S
Er3    V36    10.000   .     S
Er3    V47    10.000   1_556 S
Er3    V51    10.000   1_655 S
Er4    V48    10.000   .     S
Er4    V35    10.000   1_565 S
Er4    V55    10.000   1_655 S
Er5    V39    10.000   .     S
Er5    V48    10.000   .     S
Er5    V54    10.000   .     S
Er6    V38    10.000   .     S
Er6    V50    10.000   .     S
Er6    V47    10.000   1_556 S
Er7    V34    10.000   .     S
Er7    V53    10.000   .     S
Er7    V43    10.000   1_556 S
Er8    V33    10.000   .     S
Er8    V44    10.000   .     S
Er8    V49    10.000   .     S
Er9    V36    10.000   .     S
Er9    V46    10.000   .     S
Er9    V50    10.000   .     S
Er10   V45    10.000   .     S
Er10   V54    10.000   .     S
Er10   V35    10.000   1_565 S
Er11   V37    10.000   .     S
Er11   V41    10.000   .     S
Er11   V49    10.000   .     S
Er12   V42    10.000   .     S
Er12   V53    10.000   .     S
Er12   V40    10.000   1_565 S
Er13   V34    10.000   .     S
Er13   V42    10.000   .     S
Er13   V56    10.000   .     S
Er14   V33    10.000   .     S
Er14   V41    10.000   .     S
Er14   V52    10.000   .     S
Er15   V39    10.000   .     S
Er15   V45    10.000   .     S
Er15   V55    10.000   1_655 S
Er16   V38    10.000   .     S
Er16   V46    10.000   .     S
Er16   V51    10.000   1_655 S
Er17   V50    10.000   .     S
Er17   V44    10.000   .     S
Er17   V34    10.000   .     S
Er18   V54    10.000   .     S
Er18   V43    10.000   .     S
Er18   V33    10.000   1_565 S
Er19   V47    10.000   .     S
Er19   V39    10.000   .     S
Er19   V49    10.000   1_655 S
Er20   V48    10.000   .     S
Er20   V53    10.000   1_655 S
Er20   V38    10.000   1_565 S
Er21   V56    10.000   .     S
Er21   V48    10.000   .     S
Er21   V36    10.000   .     S
Er22   V52    10.000   .     S
Er22   V47    10.000   .     S
Er22   V35    10.000   .     S
Er23   V55    10.000   .     S
Er23   V43    10.000   .     S
Er23   V37    10.000   .     S
Er24   V51    10.000   .     S
Er24   V44    10.000   .     S
Er24   V40    10.000   .     S
Er25   V54    10.000   .     S
Er25   V42    10.000   .     S
Er25   V37    10.000   .     S
Er26   V50    10.000   .     S
Er26   V40    10.000   .     S
Er26   V41    10.000   1_556 S
Er27   V36    10.000   .     S
Er27   V53    10.000   1_655 S
Er27   V45    10.000   1_556 S
Er28   V46    10.000   .     S
Er28   V35    10.000   .     S
Er28   V49    10.000   1_655 S
Er29   V52    10.000   .     S
Er29   V46    10.000   .     S
Er29   V39    10.000   .     S
Er30   V56    10.000   .     S
Er30   V45    10.000   1_556 S
Er30   V38    10.000   1_565 S
Er31   V51    10.000   .     S
Er31   V34    10.000   .     S
Er31   V41    10.000   1_556 S
Er32   V55    10.000   .     S
Er32   V42    10.000   .     S
Er32   V33    10.000   1_565 S
V33    Er18   10.000   1_545 S
V33    Er32   10.000   1_545 S
V35    Er4    10.000   1_545 S
V35    Er10   10.000   1_545 S
V38    Er20   10.000   1_545 S
V38    Er30   10.000   1_545 S
V40    Er2    10.000   1_545 S
V40    Er12   10.000   1_545 S
V41    Er26   10.000   1_554 S
V41    Er31   10.000   1_554 S
V43    Er2    10.000   1_554 S
V43    Er7    10.000   1_554 S
V45    Er27   10.000   1_554 S
V45    Er30   10.000   1_554 S
V47    Er3    10.000   1_554 S
V47    Er6    10.000   1_554 S
V49    Er19   10.000   1_455 S
V49    Er28   10.000   1_455 S
V51    Er3    10.000   1_455 S
V51    Er16   10.000   1_455 S
V53    Er20   10.000   1_455 S
V53    Er27   10.000   1_455 S
V55    Er4    10.000   1_455 S
V55    Er15   10.000   1_455 S
