data_tcb
_audit_creation_date              2019-09-09
_audit_creation_method            'Materials Studio'
_symmetry_space_group_name_H-M    'P1'
_symmetry_Int_Tables_number       1
_symmetry_cell_setting            triclinic
loop_
_symmetry_equiv_pos_as_xyz
  x,y,z
_cell_length_a                    14.6360
_cell_length_b                    6.8160
_cell_length_c                    18.8070
_cell_angle_alpha                 90.0000
_cell_angle_beta                  90.0000
_cell_angle_gamma                 90.0000
loop_
_atom_site_label
_atom_site_type_symbol
_atom_site_fract_x
_atom_site_fract_y
_atom_site_fract_z
_atom_site_U_iso_or_equiv
_atom_site_adp_type
_atom_site_occupancy
C1     C     1.00000   0.50000   0.50000   0.00000  Uiso   1.00
C2     C    -0.50000   0.50000   0.50000   0.00000  Uiso   1.00
C3     C    -0.50000  -0.00000   0.00000   0.00000  Uiso   1.00
C4     C     1.00000   0.00000   0.00000   0.00000  Uiso   1.00
C5     C     0.00000   0.50000   0.50000   0.00000  Uiso   1.00
C6     C     0.50000   0.50000   0.50000   0.00000  Uiso   1.00
C7     C     0.50000   0.00000   0.00000   0.00000  Uiso   1.00
C8     C     0.00000  -0.00000   0.00000   0.00000  Uiso   1.00
V9     V     0.00000   0.00000   0.00000   0.00000  Uiso   1.00
V10    V     0.50000   0.00000   0.00000   0.00000  Uiso   1.00
V11    V     0.50000   0.50000   0.50000   0.00000  Uiso   1.00
V12    V     0.00000   0.50000   0.50000   0.00000  Uiso   1.00
loop_
_geom_bond_atom_site_label_1
_geom_bond_atom_site_label_2
_geom_bond_distance
_geom_bond_site_symmetry_2
_ccdc_geom_bond_type
C1     V11     7.318   .     S
C2     V12     7.318   .     S
C3     V9      7.318   .     S
C4     V10     7.318   .     S
C5     V11     7.318   .     S
C6     V12     7.318   .     S
C7     V9      7.318   .     S
C8     V10     7.318   .     S
V9     V12    10.002   .     S
V9     V12    10.002   1_544 S
V10    V11    10.002   1_545 S
V10    V11    10.002   1_554 S
V11    V10    10.002   1_565 S
V11    V10    10.002   1_556 S
V12    V9     10.002   1_566 S
