data_tfb
_audit_creation_date              2018-06-21
_audit_creation_method            'Materials Studio'
_symmetry_space_group_name_H-M    'P1'
_symmetry_Int_Tables_number       1
_symmetry_cell_setting            triclinic
loop_
_symmetry_equiv_pos_as_xyz
  x,y,z
_cell_length_a                    50.0000
_cell_length_b                    50.0000
_cell_length_c                    50.0000
_cell_angle_alpha                 90.0000
_cell_angle_beta                  90.0000
_cell_angle_gamma                 90.0000
loop_
_atom_site_label
_atom_site_type_symbol
_atom_site_fract_x
_atom_site_fract_y
_atom_site_fract_z
_atom_site_U_iso_or_equiv
_atom_site_adp_type
_atom_site_occupancy
V1     V     0.00000   0.18470   0.18470   0.00000  Uiso   1.00
V2     V     0.00000   0.68470   0.68470   0.00000  Uiso   1.00
V3     V     0.50000   0.18470   0.68470   0.00000  Uiso   1.00
V4     V     0.50000   0.68470   0.18470   0.00000  Uiso   1.00
V5     V     0.00000   0.81530   0.18470   0.00000  Uiso   1.00
V6     V     0.00000   0.31530   0.68470   0.00000  Uiso   1.00
V7     V     0.50000   0.81530   0.68470   0.00000  Uiso   1.00
V8     V     0.50000   0.31530   0.18470   0.00000  Uiso   1.00
V9     V     0.00000   0.18470   0.81530   0.00000  Uiso   1.00
V10    V     0.00000   0.68470   0.31530   0.00000  Uiso   1.00
V11    V     0.50000   0.18470   0.31530   0.00000  Uiso   1.00
V12    V     0.50000   0.68470   0.81530   0.00000  Uiso   1.00
V13    V     0.00000   0.81530   0.81530   0.00000  Uiso   1.00
V14    V     0.00000   0.31530   0.31530   0.00000  Uiso   1.00
V15    V     0.50000   0.81530   0.31530   0.00000  Uiso   1.00
V16    V     0.50000   0.31530   0.81530   0.00000  Uiso   1.00
V17    V     0.18470   0.00000   0.18470   0.00000  Uiso   1.00
V18    V     0.18470   0.50000   0.68470   0.00000  Uiso   1.00
V19    V     0.68470   0.00000   0.68470   0.00000  Uiso   1.00
V20    V     0.68470   0.50000   0.18470   0.00000  Uiso   1.00
V21    V     0.18470   0.00000   0.81530   0.00000  Uiso   1.00
V22    V     0.18470   0.50000   0.31530   0.00000  Uiso   1.00
V23    V     0.68470   0.00000   0.31530   0.00000  Uiso   1.00
V24    V     0.68470   0.50000   0.81530   0.00000  Uiso   1.00
V25    V     0.81530   0.00000   0.18470   0.00000  Uiso   1.00
V26    V     0.81530   0.50000   0.68470   0.00000  Uiso   1.00
V27    V     0.31530   0.00000   0.68470   0.00000  Uiso   1.00
V28    V     0.31530   0.50000   0.18470   0.00000  Uiso   1.00
V29    V     0.81530   0.00000   0.81530   0.00000  Uiso   1.00
V30    V     0.81530   0.50000   0.31530   0.00000  Uiso   1.00
V31    V     0.31530   0.00000   0.31530   0.00000  Uiso   1.00
V32    V     0.31530   0.50000   0.81530   0.00000  Uiso   1.00
V33    V     0.18470   0.18470   0.00000   0.00000  Uiso   1.00
V34    V     0.18470   0.68470   0.50000   0.00000  Uiso   1.00
V35    V     0.68470   0.18470   0.50000   0.00000  Uiso   1.00
V36    V     0.68470   0.68470   0.00000   0.00000  Uiso   1.00
V37    V     0.81530   0.18470   0.00000   0.00000  Uiso   1.00
V38    V     0.81530   0.68470   0.50000   0.00000  Uiso   1.00
V39    V     0.31530   0.18470   0.50000   0.00000  Uiso   1.00
V40    V     0.31530   0.68470   0.00000   0.00000  Uiso   1.00
V41    V     0.18470   0.81530   0.00000   0.00000  Uiso   1.00
V42    V     0.18470   0.31530   0.50000   0.00000  Uiso   1.00
V43    V     0.68470   0.81530   0.50000   0.00000  Uiso   1.00
V44    V     0.68470   0.31530   0.00000   0.00000  Uiso   1.00
V45    V     0.81530   0.81530   0.00000   0.00000  Uiso   1.00
V46    V     0.81530   0.31530   0.50000   0.00000  Uiso   1.00
V47    V     0.31530   0.81530   0.50000   0.00000  Uiso   1.00
V48    V     0.31530   0.31530   0.00000   0.00000  Uiso   1.00
Er49   Er    0.00000   0.00000   0.18470   0.00000  Uiso   1.00
Er50   Er    0.00000   0.50000   0.68470   0.00000  Uiso   1.00
Er51   Er    0.50000   0.00000   0.68470   0.00000  Uiso   1.00
Er52   Er    0.50000   0.50000   0.18470   0.00000  Uiso   1.00
Er53   Er    0.00000   0.00000   0.81530   0.00000  Uiso   1.00
Er54   Er    0.00000   0.50000   0.31530   0.00000  Uiso   1.00
Er55   Er    0.50000   0.00000   0.31530   0.00000  Uiso   1.00
Er56   Er    0.50000   0.50000   0.81530   0.00000  Uiso   1.00
Er57   Er    0.18470   0.00000   0.00000   0.00000  Uiso   1.00
Er58   Er    0.18470   0.50000   0.50000   0.00000  Uiso   1.00
Er59   Er    0.68470   0.00000   0.50000   0.00000  Uiso   1.00
Er60   Er    0.68470   0.50000   0.00000   0.00000  Uiso   1.00
Er61   Er    0.81530   0.00000   0.00000   0.00000  Uiso   1.00
Er62   Er    0.81530   0.50000   0.50000   0.00000  Uiso   1.00
Er63   Er    0.31530   0.00000   0.50000   0.00000  Uiso   1.00
Er64   Er    0.31530   0.50000   0.00000   0.00000  Uiso   1.00
Er65   Er    0.00000   0.18470   0.00000   0.00000  Uiso   1.00
Er66   Er    0.00000   0.68470   0.50000   0.00000  Uiso   1.00
Er67   Er    0.50000   0.18470   0.50000   0.00000  Uiso   1.00
Er68   Er    0.50000   0.68470   0.00000   0.00000  Uiso   1.00
Er69   Er    0.00000   0.81530   0.00000   0.00000  Uiso   1.00
Er70   Er    0.00000   0.31530   0.50000   0.00000  Uiso   1.00
Er71   Er    0.50000   0.81530   0.50000   0.00000  Uiso   1.00
Er72   Er    0.50000   0.31530   0.00000   0.00000  Uiso   1.00
loop_
_geom_bond_atom_site_label_1
_geom_bond_atom_site_label_2
_geom_bond_distance
_geom_bond_site_symmetry_2
_ccdc_geom_bond_type
V1     Er49    9.235   .     S
V1     Er65    9.235   .     S
V1     V14     9.235   .     S
V2     Er50    9.235   .     S
V2     Er66    9.235   .     S
V2     V13     9.235   .     S
V3     Er51    9.235   .     S
V3     Er67    9.235   .     S
V3     V16     9.235   .     S
V4     Er52    9.235   .     S
V4     Er68    9.235   .     S
V4     V15     9.235   .     S
V5     Er49    9.235   1_565 S
V5     Er69    9.235   .     S
V5     V10     9.235   .     S
V6     Er50    9.235   .     S
V6     Er70    9.235   .     S
V6     V9      9.235   .     S
V7     Er51    9.235   1_565 S
V7     Er71    9.235   .     S
V7     V12     9.235   .     S
V8     Er52    9.235   .     S
V8     Er72    9.235   .     S
V8     V11     9.235   .     S
V9     Er53    9.235   .     S
V9     Er65    9.235   1_556 S
V10    Er54    9.235   .     S
V10    Er66    9.235   .     S
V11    Er55    9.235   .     S
V11    Er67    9.235   .     S
V12    Er56    9.235   .     S
V12    Er68    9.235   1_556 S
V13    Er53    9.235   1_565 S
V13    Er69    9.235   1_556 S
V14    Er54    9.235   .     S
V14    Er70    9.235   .     S
V15    Er55    9.235   1_565 S
V15    Er71    9.235   .     S
V16    Er56    9.235   .     S
V16    Er72    9.235   1_556 S
V17    Er57    9.235   .     S
V17    Er49    9.235   .     S
V17    V31     9.235   .     S
V18    Er58    9.235   .     S
V18    Er50    9.235   .     S
V18    V32     9.235   .     S
V19    Er59    9.235   .     S
V19    Er51    9.235   .     S
V19    V29     9.235   .     S
V20    Er60    9.235   .     S
V20    Er52    9.235   .     S
V20    V30     9.235   .     S
V21    Er57    9.235   1_556 S
V21    Er53    9.235   .     S
V21    V27     9.235   .     S
V22    Er58    9.235   .     S
V22    Er54    9.235   .     S
V22    V28     9.235   .     S
V23    Er59    9.235   .     S
V23    Er55    9.235   .     S
V23    V25     9.235   .     S
V24    Er60    9.235   1_556 S
V24    Er56    9.235   .     S
V24    V26     9.235   .     S
V25    Er61    9.235   .     S
V25    Er49    9.235   1_655 S
V26    Er62    9.235   .     S
V26    Er50    9.235   1_655 S
V27    Er63    9.235   .     S
V27    Er51    9.235   .     S
V28    Er64    9.235   .     S
V28    Er52    9.235   .     S
V29    Er61    9.235   1_556 S
V29    Er53    9.235   1_655 S
V30    Er62    9.235   .     S
V30    Er54    9.235   1_655 S
V31    Er63    9.235   .     S
V31    Er55    9.235   .     S
V32    Er64    9.235   1_556 S
V32    Er56    9.235   .     S
V33    Er65    9.235   .     S
V33    Er57    9.235   .     S
V33    V48     9.235   .     S
V34    Er66    9.235   .     S
V34    Er58    9.235   .     S
V34    V47     9.235   .     S
V35    Er67    9.235   .     S
V35    Er59    9.235   .     S
V35    V46     9.235   .     S
V36    Er68    9.235   .     S
V36    Er60    9.235   .     S
V36    V45     9.235   .     S
V37    Er65    9.235   1_655 S
V37    Er61    9.235   .     S
V37    V44     9.235   .     S
V38    Er66    9.235   1_655 S
V38    Er62    9.235   .     S
V38    V43     9.235   .     S
V39    Er67    9.235   .     S
V39    Er63    9.235   .     S
V39    V42     9.235   .     S
V40    Er68    9.235   .     S
V40    Er64    9.235   .     S
V40    V41     9.235   .     S
V41    Er69    9.235   .     S
V41    Er57    9.235   1_565 S
V42    Er70    9.235   .     S
V42    Er58    9.235   .     S
V43    Er71    9.235   .     S
V43    Er59    9.235   1_565 S
V44    Er72    9.235   .     S
V44    Er60    9.235   .     S
V45    Er69    9.235   1_655 S
V45    Er61    9.235   1_565 S
V46    Er70    9.235   1_655 S
V46    Er62    9.235   .     S
V47    Er71    9.235   .     S
V47    Er63    9.235   1_565 S
V48    Er72    9.235   .     S
V48    Er64    9.235   .     S
Er49   V5      9.235   1_545 S
Er49   V25     9.235   1_455 S
Er50   V26     9.235   1_455 S
Er51   V7      9.235   1_545 S
Er53   V13     9.235   1_545 S
Er53   V29     9.235   1_455 S
Er54   V30     9.235   1_455 S
Er55   V15     9.235   1_545 S
Er57   V21     9.235   1_554 S
Er57   V41     9.235   1_545 S
Er59   V43     9.235   1_545 S
Er60   V24     9.235   1_554 S
Er61   V29     9.235   1_554 S
Er61   V45     9.235   1_545 S
Er63   V47     9.235   1_545 S
Er64   V32     9.235   1_554 S
Er65   V37     9.235   1_455 S
Er65   V9      9.235   1_554 S
Er66   V38     9.235   1_455 S
Er68   V12     9.235   1_554 S
Er69   V45     9.235   1_455 S
Er69   V13     9.235   1_554 S
Er70   V46     9.235   1_455 S
Er72   V16     9.235   1_554 S
