data_tfq
_audit_creation_date              2018-06-26
_audit_creation_method            'Materials Studio'
_symmetry_space_group_name_H-M    'P1'
_symmetry_Int_Tables_number       1
_symmetry_cell_setting            triclinic
loop_
_symmetry_equiv_pos_as_xyz
  x,y,z
_cell_length_a                    18.0170
_cell_length_b                    18.0170
_cell_length_c                    56.0470
_cell_angle_alpha                 90.0000
_cell_angle_beta                  90.0000
_cell_angle_gamma                 120.0000
loop_
_atom_site_label
_atom_site_type_symbol
_atom_site_fract_x
_atom_site_fract_y
_atom_site_fract_z
_atom_site_U_iso_or_equiv
_atom_site_adp_type
_atom_site_occupancy
V1     V     0.50000  -0.00000   0.41080   0.00000  Uiso   1.00
V2     V     0.00000   0.50000   0.74413   0.00000  Uiso   1.00
V3     V     0.50000   0.50000   0.07747   0.00000  Uiso   1.00
V4     V     0.00000   0.50000   0.92253   0.00000  Uiso   1.00
V5     V     0.50000  -0.00000   0.58920   0.00000  Uiso   1.00
V6     V     0.50000   0.50000   0.25587   0.00000  Uiso   1.00
Er7    Er    0.50000  -0.00000   0.00000   0.00000  Uiso   1.00
Er8    Er    0.00000   0.50000   0.33333   0.00000  Uiso   1.00
Er9    Er    0.50000   0.50000   0.66667   0.00000  Uiso   1.00
loop_
_geom_bond_atom_site_label_1
_geom_bond_atom_site_label_2
_geom_bond_distance
_geom_bond_site_symmetry_2
_ccdc_geom_bond_type
V1     V5      9.999   .     S
V1     Er8    10.000   1_545 S
V1     Er8    10.000   1_655 S
V2     Er9    10.000   .     S
V2     V4      9.999   .     S
V2     Er9    10.000   1_455 S
V3     V6      9.999   .     S
V3     Er7    10.000   .     S
V3     Er7    10.000   1_565 S
V4     Er7    10.000   1_456 S
V4     Er7    10.000   1_566 S
V5     Er9    10.000   .     S
V5     Er9    10.000   1_545 S
V6     Er8    10.000   .     S
V6     Er8    10.000   1_655 S
Er7    V3     10.000   1_545 S
Er7    V4     10.000   1_654 S
Er7    V4     10.000   1_544 S
Er8    V1     10.000   1_565 S
Er8    V1     10.000   1_455 S
Er8    V6     10.000   1_455 S
Er9    V2     10.000   1_655 S
Er9    V5     10.000   1_565 S
