data_toz
_audit_creation_date              2019-09-10
_audit_creation_method            'Materials Studio'
_symmetry_space_group_name_H-M    'P1'
_symmetry_Int_Tables_number       1
_symmetry_cell_setting            triclinic
loop_
_symmetry_equiv_pos_as_xyz
  x,y,z
_cell_length_a                    35.9820
_cell_length_b                    35.9820
_cell_length_c                    142.1070
_cell_angle_alpha                 90.0000
_cell_angle_beta                  90.0000
_cell_angle_gamma                 120.0000
loop_
_atom_site_label
_atom_site_type_symbol
_atom_site_fract_x
_atom_site_fract_y
_atom_site_fract_z
_atom_site_U_iso_or_equiv
_atom_site_adp_type
_atom_site_occupancy
V1     V     0.08360   0.22690   0.18630   0.00000  Uiso   1.00
H2     H     0.31340   0.11250   0.13360   0.00000  Uiso   1.00
V3     V     0.75027   0.56023   0.51963   0.00000  Uiso   1.00
H4     H     0.98007   0.44583   0.46693   0.00000  Uiso   1.00
V5     V     0.41693   0.89357   0.85297   0.00000  Uiso   1.00
H6     H     0.64673   0.77917   0.80027   0.00000  Uiso   1.00
V7     V     0.77310   0.85670   0.18630   0.00000  Uiso   1.00
H8     H     0.88750   0.20090   0.13360   0.00000  Uiso   1.00
V9     V     0.43977   0.19003   0.51963   0.00000  Uiso   1.00
H10    H     0.55417   0.53423   0.46693   0.00000  Uiso   1.00
V11    V     0.10643   0.52337   0.85297   0.00000  Uiso   1.00
H12    H     0.22083   0.86757   0.80027   0.00000  Uiso   1.00
V13    V     0.14330   0.91640   0.18630   0.00000  Uiso   1.00
H14    H     0.79910   0.68660   0.13360   0.00000  Uiso   1.00
V15    V     0.80997   0.24973   0.51963   0.00000  Uiso   1.00
H16    H     0.46577   0.01993   0.46693   0.00000  Uiso   1.00
V17    V     0.47663   0.58307   0.85297   0.00000  Uiso   1.00
H18    H     0.13243   0.35327   0.80027   0.00000  Uiso   1.00
V19    V     0.22690   0.08360   0.31370   0.00000  Uiso   1.00
H20    H     0.11250   0.31340   0.36640   0.00000  Uiso   1.00
V21    V     0.89357   0.41693   0.64703   0.00000  Uiso   1.00
H22    H     0.77917   0.64673   0.69973   0.00000  Uiso   1.00
V23    V     0.56023   0.75027   0.98037   0.00000  Uiso   1.00
H24    H     0.44583   0.98007   0.03307   0.00000  Uiso   1.00
V25    V     0.85670   0.77310   0.31370   0.00000  Uiso   1.00
H26    H     0.20090   0.88750   0.36640   0.00000  Uiso   1.00
V27    V     0.52337   0.10643   0.64703   0.00000  Uiso   1.00
H28    H     0.86757   0.22083   0.69973   0.00000  Uiso   1.00
V29    V     0.19003   0.43977   0.98037   0.00000  Uiso   1.00
H30    H     0.53423   0.55417   0.03307   0.00000  Uiso   1.00
V31    V     0.91640   0.14330   0.31370   0.00000  Uiso   1.00
H32    H     0.68660   0.79910   0.36640   0.00000  Uiso   1.00
V33    V     0.58307   0.47663   0.64703   0.00000  Uiso   1.00
H34    H     0.35327   0.13243   0.69973   0.00000  Uiso   1.00
V35    V     0.24973   0.80997   0.98037   0.00000  Uiso   1.00
H36    H     0.01993   0.46577   0.03307   0.00000  Uiso   1.00
V37    V     0.91640   0.77310   0.81370   0.00000  Uiso   1.00
H38    H     0.68660   0.88750   0.86640   0.00000  Uiso   1.00
V39    V     0.58307   0.10643   0.14703   0.00000  Uiso   1.00
H40    H     0.35327   0.22083   0.19973   0.00000  Uiso   1.00
V41    V     0.24973   0.43977   0.48037   0.00000  Uiso   1.00
H42    H     0.01993   0.55417   0.53307   0.00000  Uiso   1.00
V43    V     0.22690   0.14330   0.81370   0.00000  Uiso   1.00
H44    H     0.11250   0.79910   0.86640   0.00000  Uiso   1.00
V45    V     0.89357   0.47663   0.14703   0.00000  Uiso   1.00
H46    H     0.77917   0.13243   0.19973   0.00000  Uiso   1.00
V47    V     0.56023   0.80997   0.48037   0.00000  Uiso   1.00
H48    H     0.44583   0.46577   0.53307   0.00000  Uiso   1.00
V49    V     0.85670   0.08360   0.81370   0.00000  Uiso   1.00
H50    H     0.20090   0.31340   0.86640   0.00000  Uiso   1.00
V51    V     0.52337   0.41693   0.14703   0.00000  Uiso   1.00
H52    H     0.86757   0.64673   0.19973   0.00000  Uiso   1.00
V53    V     0.19003   0.75027   0.48037   0.00000  Uiso   1.00
H54    H     0.53423   0.98007   0.53307   0.00000  Uiso   1.00
V55    V     0.77310   0.91640   0.68630   0.00000  Uiso   1.00
H56    H     0.88750   0.68660   0.63360   0.00000  Uiso   1.00
V57    V     0.43977   0.24973   0.01963   0.00000  Uiso   1.00
H58    H     0.55417   0.01993   0.96693   0.00000  Uiso   1.00
V59    V     0.10643   0.58307   0.35297   0.00000  Uiso   1.00
H60    H     0.22083   0.35327   0.30027   0.00000  Uiso   1.00
V61    V     0.14330   0.22690   0.68630   0.00000  Uiso   1.00
H62    H     0.79910   0.11250   0.63360   0.00000  Uiso   1.00
V63    V     0.80997   0.56023   0.01963   0.00000  Uiso   1.00
H64    H     0.46577   0.44583   0.96693   0.00000  Uiso   1.00
V65    V     0.47663   0.89357   0.35297   0.00000  Uiso   1.00
H66    H     0.13243   0.77917   0.30027   0.00000  Uiso   1.00
V67    V     0.08360   0.85670   0.68630   0.00000  Uiso   1.00
H68    H     0.31340   0.20090   0.63360   0.00000  Uiso   1.00
V69    V     0.75027   0.19003   0.01963   0.00000  Uiso   1.00
H70    H     0.98007   0.53423   0.96693   0.00000  Uiso   1.00
V71    V     0.41693   0.52337   0.35297   0.00000  Uiso   1.00
H72    H     0.64673   0.86757   0.30027   0.00000  Uiso   1.00
Er73   Er    0.00000   0.00000   0.25000   0.00000  Uiso   1.00
Er74   Er    0.66667   0.33333   0.58333   0.00000  Uiso   1.00
Er75   Er    0.33333   0.66667   0.91667   0.00000  Uiso   1.00
Er76   Er    0.00000   0.00000   0.75000   0.00000  Uiso   1.00
Er77   Er    0.66667   0.33333   0.08333   0.00000  Uiso   1.00
Er78   Er    0.33333   0.66667   0.41667   0.00000  Uiso   1.00
Ti79   Ti    0.55580  -0.00000   0.25000   0.00000  Uiso   1.00
S80    S     0.27790  -0.00000   0.25000   0.00000  Uiso   1.00
Ti81   Ti    0.22247   0.33333   0.58333   0.00000  Uiso   1.00
S82    S     0.94457   0.33333   0.58333   0.00000  Uiso   1.00
Ti83   Ti    0.88913   0.66667   0.91667   0.00000  Uiso   1.00
S84    S     0.61123   0.66667   0.91667   0.00000  Uiso   1.00
Ti85   Ti    0.00000   0.55580   0.25000   0.00000  Uiso   1.00
S86    S     0.00000   0.27790   0.25000   0.00000  Uiso   1.00
Ti87   Ti    0.66667   0.88913   0.58333   0.00000  Uiso   1.00
S88    S     0.66667   0.61123   0.58333   0.00000  Uiso   1.00
Ti89   Ti    0.33333   0.22247   0.91667   0.00000  Uiso   1.00
S90    S     0.33333   0.94457   0.91667   0.00000  Uiso   1.00
Ti91   Ti    0.44420   0.44420   0.25000   0.00000  Uiso   1.00
S92    S     0.72210   0.72210   0.25000   0.00000  Uiso   1.00
Ti93   Ti    0.11087   0.77753   0.58333   0.00000  Uiso   1.00
S94    S     0.38877   0.05543   0.58333   0.00000  Uiso   1.00
Ti95   Ti    0.77753   0.11087   0.91667   0.00000  Uiso   1.00
S96    S     0.05543   0.38877   0.91667   0.00000  Uiso   1.00
Ti97   Ti    0.44420   0.00000   0.75000   0.00000  Uiso   1.00
S98    S     0.72210   0.00000   0.75000   0.00000  Uiso   1.00
Ti99   Ti    0.11087   0.33333   0.08333   0.00000  Uiso   1.00
S100   S     0.38877   0.33333   0.08333   0.00000  Uiso   1.00
Ti101  Ti    0.77753   0.66667   0.41667   0.00000  Uiso   1.00
S102   S     0.05543   0.66667   0.41667   0.00000  Uiso   1.00
Ti103  Ti   -0.00000   0.44420   0.75000   0.00000  Uiso   1.00
S104   S    -0.00000   0.72210   0.75000   0.00000  Uiso   1.00
Ti105  Ti    0.66667   0.77753   0.08333   0.00000  Uiso   1.00
S106   S     0.66667   0.05543   0.08333   0.00000  Uiso   1.00
Ti107  Ti    0.33333   0.11087   0.41667   0.00000  Uiso   1.00
S108   S     0.33333   0.38877   0.41667   0.00000  Uiso   1.00
Ti109  Ti    0.55580   0.55580   0.75000   0.00000  Uiso   1.00
S110   S     0.27790   0.27790   0.75000   0.00000  Uiso   1.00
Ti111  Ti    0.22247   0.88913   0.08333   0.00000  Uiso   1.00
S112   S     0.94457   0.61123   0.08333   0.00000  Uiso   1.00
Ti113  Ti    0.88913   0.22247   0.41667   0.00000  Uiso   1.00
S114   S     0.61123   0.94457   0.41667   0.00000  Uiso   1.00
Ce115  Ce    0.00000   0.00000   0.12350   0.00000  Uiso   1.00
Ce116  Ce    0.66667   0.33333   0.45683   0.00000  Uiso   1.00
Ce117  Ce    0.33333   0.66667   0.79017   0.00000  Uiso   1.00
Ce118  Ce    0.00000   0.00000   0.37650   0.00000  Uiso   1.00
Ce119  Ce    0.66667   0.33333   0.70983   0.00000  Uiso   1.00
Ce120  Ce    0.33333   0.66667   0.04317   0.00000  Uiso   1.00
Ce121  Ce    0.00000   0.00000   0.87650   0.00000  Uiso   1.00
Ce122  Ce    0.66667   0.33333   0.20983   0.00000  Uiso   1.00
Ce123  Ce    0.33333   0.66667   0.54317   0.00000  Uiso   1.00
Ce124  Ce    0.00000   0.00000   0.62350   0.00000  Uiso   1.00
Ce125  Ce    0.66667   0.33333   0.95683   0.00000  Uiso   1.00
Ce126  Ce    0.33333   0.66667   0.29017   0.00000  Uiso   1.00
loop_
_geom_bond_atom_site_label_1
_geom_bond_atom_site_label_2
_geom_bond_distance
_geom_bond_site_symmetry_2
_ccdc_geom_bond_type
V1     H40     9.998   .     S
V1     H8     10.007   1_455 S
V1     S86     9.994   .     S
H2     H40     9.999   .     S
H2     Ce115   9.998   .     S
H2     V39     9.998   .     S
H2     Ti111  10.002   1_545 S
H2     V13    10.007   1_545 S
H2     S100    9.999   .     S
V3     H42     9.998   1_655 S
V3     H10    10.007   .     S
V3     S88     9.994   .     S
H4     H42     9.999   1_655 S
H4     Ce116   9.998   .     S
H4     V41     9.998   1_655 S
H4     Ti113  10.002   .     S
H4     V15    10.007   .     S
H4     S102    9.999   1_655 S
V5     H38     9.998   .     S
V5     H12    10.007   .     S
V5     S90     9.994   .     S
H6     H38     9.999   .     S
H6     Ce117   9.998   .     S
H6     V37     9.998   .     S
H6     Ti109  10.002   .     S
H6     V17    10.007   .     S
H6     S98     9.999   1_565 S
V7     H46     9.998   1_565 S
V7     H14    10.007   .     S
V7     S92     9.994   .     S
H8     H46     9.999   .     S
H8     Ce115   9.998   1_655 S
H8     V45     9.998   .     S
H8     Ti99   10.002   1_655 S
H8     V1     10.007   1_655 S
H8     S106    9.999   .     S
V9     H48     9.998   .     S
V9     H16    10.007   .     S
V9     S94     9.994   .     S
H10    H48     9.999   .     S
H10    Ce116   9.998   .     S
H10    V47     9.998   .     S
H10    Ti101  10.002   .     S
H10    S108    9.999   .     S
V11    H44     9.998   .     S
V11    H18    10.007   .     S
V11    S96     9.994   .     S
H12    H44     9.999   .     S
H12    Ce117   9.998   .     S
H12    V43     9.998   1_565 S
H12    Ti97   10.002   1_565 S
H12    S104    9.999   .     S
V13    H52     9.998   1_455 S
V13    H2     10.007   1_565 S
V13    S80     9.994   1_565 S
H14    H52     9.999   .     S
H14    Ce115   9.998   1_665 S
H14    V51     9.998   .     S
H14    Ti105  10.002   .     S
H14    S112    9.999   .     S
V15    H54     9.998   1_545 S
V15    S82     9.994   .     S
H16    H54     9.999   1_545 S
H16    Ce116   9.998   .     S
H16    V53     9.998   1_545 S
H16    Ti107  10.002   .     S
H16    S114    9.999   1_545 S
V17    H50     9.998   .     S
V17    S84     9.994   .     S
H18    H50     9.999   .     S
H18    Ce117   9.998   .     S
H18    V49     9.998   1_455 S
H18    Ti103  10.002   .     S
H18    S110    9.999   .     S
V19    H60     9.998   .     S
V19    H26    10.007   1_545 S
V19    S80     9.994   .     S
H20    H60     9.999   .     S
H20    Ce118   9.998   .     S
H20    V59     9.998   .     S
H20    Ti113  10.002   1_455 S
H20    V31    10.007   1_455 S
H20    S108    9.999   .     S
V21    H56     9.998   .     S
V21    H28    10.007   .     S
V21    S82     9.994   .     S
H22    H56     9.999   .     S
H22    Ce119   9.998   .     S
H22    V55     9.998   .     S
H22    Ti109  10.002   .     S
H22    V33    10.007   .     S
H22    S104    9.999   1_655 S
V23    H58     9.998   1_565 S
V23    H30    10.007   1_556 S
V23    S84     9.994   .     S
H24    H58     9.999   1_564 S
H24    Ce120   9.998   .     S
H24    V57     9.998   1_565 S
H24    Ti111  10.002   .     S
H24    V35    10.007   1_554 S
H24    S106    9.999   1_565 S
V25    H66     9.998   1_655 S
V25    H32    10.007   .     S
V25    S92     9.994   .     S
H26    H66     9.999   .     S
H26    Ce118   9.998   1_565 S
H26    V65     9.998   .     S
H26    Ti107  10.002   1_565 S
H26    V19    10.007   1_565 S
H26    S102    9.999   .     S
V27    H62     9.998   .     S
V27    H34    10.007   .     S
V27    S94     9.994   .     S
H28    H62     9.999   .     S
H28    Ce119   9.998   .     S
H28    V61     9.998   1_655 S
H28    Ti103  10.002   1_655 S
H28    S98     9.999   .     S
V29    H64     9.998   .     S
V29    H36    10.007   1_556 S
V29    S96     9.994   .     S
H30    H64     9.999   1_554 S
H30    Ce120   9.998   .     S
H30    V63     9.998   .     S
H30    Ti105  10.002   .     S
H30    V23    10.007   1_554 S
H30    S100    9.999   .     S
V31    H72     9.998   1_545 S
V31    H20    10.007   1_655 S
V31    S86     9.994   1_655 S
H32    H72     9.999   .     S
H32    Ce118   9.998   1_665 S
H32    V71     9.998   .     S
H32    Ti101  10.002   .     S
H32    S114    9.999   .     S
V33    H68     9.998   .     S
V33    S88     9.994   .     S
H34    H68     9.999   .     S
H34    Ce119   9.998   .     S
H34    V67     9.998   1_545 S
H34    Ti97   10.002   .     S
H34    S110    9.999   .     S
V35    H70     9.998   1_455 S
V35    H24    10.007   1_556 S
V35    S90     9.994   .     S
H36    H70     9.999   1_454 S
H36    Ce120   9.998   .     S
H36    V69     9.998   1_455 S
H36    Ti99   10.002   .     S
H36    V29    10.007   1_554 S
H36    S112    9.999   1_455 S
V37    H44    10.007   1_655 S
V37    S104    9.994   1_655 S
H38    Ce121   9.998   1_665 S
H38    Ti95   10.002   1_565 S
H38    V49    10.007   1_565 S
H38    S84     9.999   .     S
V39    H46    10.007   .     S
V39    S106    9.994   .     S
H40    Ce122   9.998   .     S
H40    Ti91   10.002   .     S
H40    V51    10.007   .     S
H40    S80     9.999   .     S
V41    H4      9.998   1_455 S
V41    H48    10.007   .     S
V41    S108    9.994   .     S
H42    H4      9.999   1_455 S
H42    Ce123   9.998   .     S
H42    V3      9.998   1_455 S
H42    Ti93   10.002   .     S
H42    V53    10.007   .     S
H42    S82     9.999   1_455 S
V43    H12     9.998   1_545 S
V43    H50    10.007   .     S
V43    S110    9.994   .     S
H44    Ce121   9.998   1_565 S
H44    Ti83   10.002   1_455 S
H44    V37    10.007   1_455 S
H44    S90     9.999   .     S
V45    H52    10.007   .     S
V45    S112    9.994   .     S
H46    Ce122   9.998   .     S
H46    V7      9.998   1_545 S
H46    Ti79   10.002   .     S
H46    S86     9.999   1_655 S
V47    H54    10.007   .     S
V47    S114    9.994   .     S
H48    Ce123   9.998   .     S
H48    Ti81   10.002   .     S
H48    S88     9.999   .     S
V49    H18     9.998   1_655 S
V49    H38    10.007   1_545 S
V49    S98     9.994   .     S
H50    Ce121   9.998   .     S
H50    Ti89   10.002   .     S
H50    S96     9.999   .     S
V51    S100    9.994   .     S
H52    Ce122   9.998   .     S
H52    V13     9.998   1_655 S
H52    Ti85   10.002   1_655 S
H52    S92     9.999   .     S
V53    H16     9.998   1_565 S
V53    S102    9.994   .     S
H54    H16     9.999   1_565 S
H54    Ce123   9.998   .     S
H54    V15     9.998   1_565 S
H54    Ti87   10.002   .     S
H54    S94     9.999   1_565 S
V55    H62    10.007   1_565 S
V55    S98     9.994   1_565 S
H56    Ce124   9.998   1_665 S
H56    Ti93   10.002   1_655 S
H56    V67    10.007   1_655 S
H56    S88     9.999   .     S
V57    H24     9.998   1_545 S
V57    H64    10.007   1_554 S
V57    S100    9.994   .     S
H58    H24     9.999   1_546 S
H58    Ce125   9.998   .     S
H58    V23     9.998   1_545 S
H58    Ti95   10.002   .     S
H58    V69    10.007   1_556 S
H58    S90     9.999   1_545 S
V59    H66    10.007   .     S
V59    S102    9.994   .     S
H60    Ce126   9.998   .     S
H60    Ti91   10.002   .     S
H60    V71    10.007   .     S
H60    S86     9.999   .     S
V61    H28     9.998   1_455 S
V61    H68    10.007   .     S
V61    S110    9.994   .     S
H62    Ce124   9.998   1_655 S
H62    Ti87   10.002   1_545 S
H62    V55    10.007   1_545 S
H62    S82     9.999   .     S
V63    H70    10.007   1_554 S
V63    S112    9.994   .     S
H64    H30     9.999   1_556 S
H64    Ce125   9.998   .     S
H64    Ti89   10.002   .     S
H64    V57    10.007   1_556 S
H64    S84     9.999   .     S
V65    H72    10.007   .     S
V65    S114    9.994   .     S
H66    Ce126   9.998   .     S
H66    V25     9.998   1_455 S
H66    Ti85   10.002   .     S
H66    S80     9.999   1_565 S
V67    H34     9.998   1_565 S
V67    H56    10.007   1_455 S
V67    S104    9.994   .     S
H68    Ce124   9.998   .     S
H68    Ti81   10.002   .     S
H68    S94     9.999   .     S
V69    H36     9.998   1_655 S
V69    H58    10.007   1_554 S
V69    S106    9.994   .     S
H70    H36     9.999   1_656 S
H70    Ce125   9.998   .     S
H70    V35     9.998   1_655 S
H70    Ti83   10.002   .     S
H70    V63    10.007   1_556 S
H70    S96     9.999   1_655 S
V71    S108    9.994   .     S
H72    Ce126   9.998   .     S
H72    V31     9.998   1_565 S
H72    Ti79   10.002   1_565 S
H72    S92     9.999   .     S
Er73   S86     9.999   .     S
Er73   S92     9.999   1_445 S
Er73   S80     9.999   .     S
Er74   S88     9.999   .     S
Er74   S94     9.999   .     S
Er74   S82     9.999   .     S
Er75   S90     9.999   .     S
Er75   S96     9.999   .     S
Er75   S84     9.999   .     S
Er76   S104    9.999   1_545 S
Er76   S110    9.999   .     S
Er76   S98     9.999   1_455 S
Er77   S106    9.999   .     S
Er77   S112    9.999   .     S
Er77   S100    9.999   .     S
Er78   S108    9.999   .     S
Er78   S114    9.999   .     S
Er78   S102    9.999   .     S
Ti79   H72    10.002   1_545 S
Ti79   S80     9.999   .     S
S80    V13     9.994   1_545 S
S80    H66     9.999   1_545 S
Ti81   S82     9.999   1_455 S
S82    Ti81    9.999   1_655 S
S82    H42     9.999   1_655 S
Ti83   H44    10.002   1_655 S
Ti83   S84     9.999   .     S
Ti85   H52    10.002   1_455 S
Ti85   S86     9.999   .     S
S86    V31     9.994   1_455 S
S86    H46     9.999   1_455 S
Ti87   H62    10.002   1_565 S
Ti87   S88     9.999   .     S
Ti89   S90     9.999   1_545 S
S90    Ti89    9.999   1_565 S
S90    H58     9.999   1_565 S
Ti91   S92     9.999   .     S
S92    Er73    9.999   1_665 S
Ti93   H56    10.002   1_455 S
Ti93   S94     9.999   1_565 S
S94    Ti93    9.999   1_545 S
S94    H54     9.999   1_545 S
Ti95   H38    10.002   1_545 S
Ti95   S96     9.999   1_655 S
S96    Ti95    9.999   1_455 S
S96    H70     9.999   1_455 S
Ti97   H12    10.002   1_545 S
Ti97   S98     9.999   .     S
S98    Er76    9.999   1_655 S
S98    V55     9.994   1_545 S
S98    H6      9.999   1_545 S
Ti99   H8     10.002   1_455 S
Ti99   S100    9.999   .     S
Ti101  S102    9.999   1_655 S
S102   Ti101   9.999   1_455 S
S102   H4      9.999   1_455 S
Ti103  H28    10.002   1_455 S
Ti103  S104    9.999   .     S
S104   Er76    9.999   1_565 S
S104   V37     9.994   1_455 S
S104   H22     9.999   1_455 S
Ti105  S106    9.999   1_565 S
S106   Ti105   9.999   1_545 S
S106   H24     9.999   1_545 S
Ti107  H26    10.002   1_545 S
Ti107  S108    9.999   .     S
Ti109  S110    9.999   .     S
Ti111  H2     10.002   1_565 S
Ti111  S112    9.999   1_455 S
S112   Ti111   9.999   1_655 S
S112   H36     9.999   1_655 S
Ti113  H20    10.002   1_655 S
Ti113  S114    9.999   1_545 S
S114   Ti113   9.999   1_565 S
S114   H16     9.999   1_565 S
Ce115  H8      9.998   1_455 S
Ce115  H14     9.998   1_445 S
Ce118  H26     9.998   1_545 S
Ce118  H32     9.998   1_445 S
Ce121  H38     9.998   1_445 S
Ce121  H44     9.998   1_545 S
Ce124  H56     9.998   1_445 S
Ce124  H62     9.998   1_455 S
