data_toz
_audit_creation_date              2019-09-10
_audit_creation_method            'Materials Studio'
_symmetry_space_group_name_H-M    'P1'
_symmetry_Int_Tables_number       1
_symmetry_cell_setting            triclinic
loop_
_symmetry_equiv_pos_as_xyz
  x,y,z
_cell_length_a                    35.9820
_cell_length_b                    35.9820
_cell_length_c                    142.1070
_cell_angle_alpha                 90.0000
_cell_angle_beta                  90.0000
_cell_angle_gamma                 120.0000
loop_
_atom_site_label
_atom_site_type_symbol
_atom_site_fract_x
_atom_site_fract_y
_atom_site_fract_z
_atom_site_U_iso_or_equiv
_atom_site_adp_type
_atom_site_occupancy
Er1    Er    0.08360   0.22690   0.18630   0.00000  Uiso   1.00
V2     V     0.31340   0.11250   0.13360   0.00000  Uiso   1.00
Er3    Er    0.75027   0.56023   0.51963   0.00000  Uiso   1.00
V4     V     0.98007   0.44583   0.46693   0.00000  Uiso   1.00
Er5    Er    0.41693   0.89357   0.85297   0.00000  Uiso   1.00
V6     V     0.64673   0.77917   0.80027   0.00000  Uiso   1.00
Er7    Er    0.77310   0.85670   0.18630   0.00000  Uiso   1.00
V8     V     0.88750   0.20090   0.13360   0.00000  Uiso   1.00
Er9    Er    0.43977   0.19003   0.51963   0.00000  Uiso   1.00
V10    V     0.55417   0.53423   0.46693   0.00000  Uiso   1.00
Er11   Er    0.10643   0.52337   0.85297   0.00000  Uiso   1.00
V12    V     0.22083   0.86757   0.80027   0.00000  Uiso   1.00
Er13   Er    0.14330   0.91640   0.18630   0.00000  Uiso   1.00
V14    V     0.79910   0.68660   0.13360   0.00000  Uiso   1.00
Er15   Er    0.80997   0.24973   0.51963   0.00000  Uiso   1.00
V16    V     0.46577   0.01993   0.46693   0.00000  Uiso   1.00
Er17   Er    0.47663   0.58307   0.85297   0.00000  Uiso   1.00
V18    V     0.13243   0.35327   0.80027   0.00000  Uiso   1.00
Er19   Er    0.22690   0.08360   0.31370   0.00000  Uiso   1.00
V20    V     0.11250   0.31340   0.36640   0.00000  Uiso   1.00
Er21   Er    0.89357   0.41693   0.64703   0.00000  Uiso   1.00
V22    V     0.77917   0.64673   0.69973   0.00000  Uiso   1.00
Er23   Er    0.56023   0.75027   0.98037   0.00000  Uiso   1.00
V24    V     0.44583   0.98007   0.03307   0.00000  Uiso   1.00
Er25   Er    0.85670   0.77310   0.31370   0.00000  Uiso   1.00
V26    V     0.20090   0.88750   0.36640   0.00000  Uiso   1.00
Er27   Er    0.52337   0.10643   0.64703   0.00000  Uiso   1.00
V28    V     0.86757   0.22083   0.69973   0.00000  Uiso   1.00
Er29   Er    0.19003   0.43977   0.98037   0.00000  Uiso   1.00
V30    V     0.53423   0.55417   0.03307   0.00000  Uiso   1.00
Er31   Er    0.91640   0.14330   0.31370   0.00000  Uiso   1.00
V32    V     0.68660   0.79910   0.36640   0.00000  Uiso   1.00
Er33   Er    0.58307   0.47663   0.64703   0.00000  Uiso   1.00
V34    V     0.35327   0.13243   0.69973   0.00000  Uiso   1.00
Er35   Er    0.24973   0.80997   0.98037   0.00000  Uiso   1.00
V36    V     0.01993   0.46577   0.03307   0.00000  Uiso   1.00
Er37   Er    0.91640   0.77310   0.81370   0.00000  Uiso   1.00
V38    V     0.68660   0.88750   0.86640   0.00000  Uiso   1.00
Er39   Er    0.58307   0.10643   0.14703   0.00000  Uiso   1.00
V40    V     0.35327   0.22083   0.19973   0.00000  Uiso   1.00
Er41   Er    0.24973   0.43977   0.48037   0.00000  Uiso   1.00
V42    V     0.01993   0.55417   0.53307   0.00000  Uiso   1.00
Er43   Er    0.22690   0.14330   0.81370   0.00000  Uiso   1.00
V44    V     0.11250   0.79910   0.86640   0.00000  Uiso   1.00
Er45   Er    0.89357   0.47663   0.14703   0.00000  Uiso   1.00
V46    V     0.77917   0.13243   0.19973   0.00000  Uiso   1.00
Er47   Er    0.56023   0.80997   0.48037   0.00000  Uiso   1.00
V48    V     0.44583   0.46577   0.53307   0.00000  Uiso   1.00
Er49   Er    0.85670   0.08360   0.81370   0.00000  Uiso   1.00
V50    V     0.20090   0.31340   0.86640   0.00000  Uiso   1.00
Er51   Er    0.52337   0.41693   0.14703   0.00000  Uiso   1.00
V52    V     0.86757   0.64673   0.19973   0.00000  Uiso   1.00
Er53   Er    0.19003   0.75027   0.48037   0.00000  Uiso   1.00
V54    V     0.53423   0.98007   0.53307   0.00000  Uiso   1.00
Er55   Er    0.77310   0.91640   0.68630   0.00000  Uiso   1.00
V56    V     0.88750   0.68660   0.63360   0.00000  Uiso   1.00
Er57   Er    0.43977   0.24973   0.01963   0.00000  Uiso   1.00
V58    V     0.55417   0.01993   0.96693   0.00000  Uiso   1.00
Er59   Er    0.10643   0.58307   0.35297   0.00000  Uiso   1.00
V60    V     0.22083   0.35327   0.30027   0.00000  Uiso   1.00
Er61   Er    0.14330   0.22690   0.68630   0.00000  Uiso   1.00
V62    V     0.79910   0.11250   0.63360   0.00000  Uiso   1.00
Er63   Er    0.80997   0.56023   0.01963   0.00000  Uiso   1.00
V64    V     0.46577   0.44583   0.96693   0.00000  Uiso   1.00
Er65   Er    0.47663   0.89357   0.35297   0.00000  Uiso   1.00
V66    V     0.13243   0.77917   0.30027   0.00000  Uiso   1.00
Er67   Er    0.08360   0.85670   0.68630   0.00000  Uiso   1.00
V68    V     0.31340   0.20090   0.63360   0.00000  Uiso   1.00
Er69   Er    0.75027   0.19003   0.01963   0.00000  Uiso   1.00
V70    V     0.98007   0.53423   0.96693   0.00000  Uiso   1.00
Er71   Er    0.41693   0.52337   0.35297   0.00000  Uiso   1.00
V72    V     0.64673   0.86757   0.30027   0.00000  Uiso   1.00
Er73   Er    0.00000   0.00000   0.25000   0.00000  Uiso   1.00
Er74   Er    0.66667   0.33333   0.58333   0.00000  Uiso   1.00
Er75   Er    0.33333   0.66667   0.91667   0.00000  Uiso   1.00
Er76   Er    0.00000   0.00000   0.75000   0.00000  Uiso   1.00
Er77   Er    0.66667   0.33333   0.08333   0.00000  Uiso   1.00
Er78   Er    0.33333   0.66667   0.41667   0.00000  Uiso   1.00
Er79   Er    0.55580  -0.00000   0.25000   0.00000  Uiso   1.00
V80    V     0.27790  -0.00000   0.25000   0.00000  Uiso   1.00
Er81   Er    0.22247   0.33333   0.58333   0.00000  Uiso   1.00
V82    V     0.94457   0.33333   0.58333   0.00000  Uiso   1.00
Er83   Er    0.88913   0.66667   0.91667   0.00000  Uiso   1.00
V84    V     0.61123   0.66667   0.91667   0.00000  Uiso   1.00
Er85   Er    0.00000   0.55580   0.25000   0.00000  Uiso   1.00
V86    V     0.00000   0.27790   0.25000   0.00000  Uiso   1.00
Er87   Er    0.66667   0.88913   0.58333   0.00000  Uiso   1.00
V88    V     0.66667   0.61123   0.58333   0.00000  Uiso   1.00
Er89   Er    0.33333   0.22247   0.91667   0.00000  Uiso   1.00
V90    V     0.33333   0.94457   0.91667   0.00000  Uiso   1.00
Er91   Er    0.44420   0.44420   0.25000   0.00000  Uiso   1.00
V92    V     0.72210   0.72210   0.25000   0.00000  Uiso   1.00
Er93   Er    0.11087   0.77753   0.58333   0.00000  Uiso   1.00
V94    V     0.38877   0.05543   0.58333   0.00000  Uiso   1.00
Er95   Er    0.77753   0.11087   0.91667   0.00000  Uiso   1.00
V96    V     0.05543   0.38877   0.91667   0.00000  Uiso   1.00
Er97   Er    0.44420   0.00000   0.75000   0.00000  Uiso   1.00
V98    V     0.72210   0.00000   0.75000   0.00000  Uiso   1.00
Er99   Er    0.11087   0.33333   0.08333   0.00000  Uiso   1.00
V100   V     0.38877   0.33333   0.08333   0.00000  Uiso   1.00
Er101  Er    0.77753   0.66667   0.41667   0.00000  Uiso   1.00
V102   V     0.05543   0.66667   0.41667   0.00000  Uiso   1.00
Er103  Er   -0.00000   0.44420   0.75000   0.00000  Uiso   1.00
V104   V    -0.00000   0.72210   0.75000   0.00000  Uiso   1.00
Er105  Er    0.66667   0.77753   0.08333   0.00000  Uiso   1.00
V106   V     0.66667   0.05543   0.08333   0.00000  Uiso   1.00
Er107  Er    0.33333   0.11087   0.41667   0.00000  Uiso   1.00
V108   V     0.33333   0.38877   0.41667   0.00000  Uiso   1.00
Er109  Er    0.55580   0.55580   0.75000   0.00000  Uiso   1.00
V110   V     0.27790   0.27790   0.75000   0.00000  Uiso   1.00
Er111  Er    0.22247   0.88913   0.08333   0.00000  Uiso   1.00
V112   V     0.94457   0.61123   0.08333   0.00000  Uiso   1.00
Er113  Er    0.88913   0.22247   0.41667   0.00000  Uiso   1.00
V114   V     0.61123   0.94457   0.41667   0.00000  Uiso   1.00
Er115  Er    0.00000   0.00000   0.12350   0.00000  Uiso   1.00
Er116  Er    0.66667   0.33333   0.45683   0.00000  Uiso   1.00
Er117  Er    0.33333   0.66667   0.79017   0.00000  Uiso   1.00
Er118  Er    0.00000   0.00000   0.37650   0.00000  Uiso   1.00
Er119  Er    0.66667   0.33333   0.70983   0.00000  Uiso   1.00
Er120  Er    0.33333   0.66667   0.04317   0.00000  Uiso   1.00
Er121  Er    0.00000   0.00000   0.87650   0.00000  Uiso   1.00
Er122  Er    0.66667   0.33333   0.20983   0.00000  Uiso   1.00
Er123  Er    0.33333   0.66667   0.54317   0.00000  Uiso   1.00
Er124  Er    0.00000   0.00000   0.62350   0.00000  Uiso   1.00
Er125  Er    0.66667   0.33333   0.95683   0.00000  Uiso   1.00
Er126  Er    0.33333   0.66667   0.29017   0.00000  Uiso   1.00
loop_
_geom_bond_atom_site_label_1
_geom_bond_atom_site_label_2
_geom_bond_distance
_geom_bond_site_symmetry_2
_ccdc_geom_bond_type
Er1    V40     9.998   .     S
Er1    V8     10.007   1_455 S
Er1    V86     9.994   .     S
V2     V40     9.999   .     S
V2     Er115   9.998   .     S
V2     Er39    9.998   .     S
V2     Er111  10.002   1_545 S
V2     Er13   10.007   1_545 S
V2     V100    9.999   .     S
Er3    V42     9.998   1_655 S
Er3    V10    10.007   .     S
Er3    V88     9.994   .     S
V4     V42     9.999   1_655 S
V4     Er116   9.998   .     S
V4     Er41    9.998   1_655 S
V4     Er113  10.002   .     S
V4     Er15   10.007   .     S
V4     V102    9.999   1_655 S
Er5    V38     9.998   .     S
Er5    V12    10.007   .     S
Er5    V90     9.994   .     S
V6     V38     9.999   .     S
V6     Er117   9.998   .     S
V6     Er37    9.998   .     S
V6     Er109  10.002   .     S
V6     Er17   10.007   .     S
V6     V98     9.999   1_565 S
Er7    V46     9.998   1_565 S
Er7    V14    10.007   .     S
Er7    V92     9.994   .     S
V8     V46     9.999   .     S
V8     Er115   9.998   1_655 S
V8     Er45    9.998   .     S
V8     Er99   10.002   1_655 S
V8     Er1    10.007   1_655 S
V8     V106    9.999   .     S
Er9    V48     9.998   .     S
Er9    V16    10.007   .     S
Er9    V94     9.994   .     S
V10    V48     9.999   .     S
V10    Er116   9.998   .     S
V10    Er47    9.998   .     S
V10    Er101  10.002   .     S
V10    V108    9.999   .     S
Er11   V44     9.998   .     S
Er11   V18    10.007   .     S
Er11   V96     9.994   .     S
V12    V44     9.999   .     S
V12    Er117   9.998   .     S
V12    Er43    9.998   1_565 S
V12    Er97   10.002   1_565 S
V12    V104    9.999   .     S
Er13   V52     9.998   1_455 S
Er13   V2     10.007   1_565 S
Er13   V80     9.994   1_565 S
V14    V52     9.999   .     S
V14    Er115   9.998   1_665 S
V14    Er51    9.998   .     S
V14    Er105  10.002   .     S
V14    V112    9.999   .     S
Er15   V54     9.998   1_545 S
Er15   V82     9.994   .     S
V16    V54     9.999   1_545 S
V16    Er116   9.998   .     S
V16    Er53    9.998   1_545 S
V16    Er107  10.002   .     S
V16    V114    9.999   1_545 S
Er17   V50     9.998   .     S
Er17   V84     9.994   .     S
V18    V50     9.999   .     S
V18    Er117   9.998   .     S
V18    Er49    9.998   1_455 S
V18    Er103  10.002   .     S
V18    V110    9.999   .     S
Er19   V60     9.998   .     S
Er19   V26    10.007   1_545 S
Er19   V80     9.994   .     S
V20    V60     9.999   .     S
V20    Er118   9.998   .     S
V20    Er59    9.998   .     S
V20    Er113  10.002   1_455 S
V20    Er31   10.007   1_455 S
V20    V108    9.999   .     S
Er21   V56     9.998   .     S
Er21   V28    10.007   .     S
Er21   V82     9.994   .     S
V22    V56     9.999   .     S
V22    Er119   9.998   .     S
V22    Er55    9.998   .     S
V22    Er109  10.002   .     S
V22    Er33   10.007   .     S
V22    V104    9.999   1_655 S
Er23   V58     9.998   1_565 S
Er23   V30    10.007   1_556 S
Er23   V84     9.994   .     S
V24    V58     9.999   1_564 S
V24    Er120   9.998   .     S
V24    Er57    9.998   1_565 S
V24    Er111  10.002   .     S
V24    Er35   10.007   1_554 S
V24    V106    9.999   1_565 S
Er25   V66     9.998   1_655 S
Er25   V32    10.007   .     S
Er25   V92     9.994   .     S
V26    V66     9.999   .     S
V26    Er118   9.998   1_565 S
V26    Er65    9.998   .     S
V26    Er107  10.002   1_565 S
V26    Er19   10.007   1_565 S
V26    V102    9.999   .     S
Er27   V62     9.998   .     S
Er27   V34    10.007   .     S
Er27   V94     9.994   .     S
V28    V62     9.999   .     S
V28    Er119   9.998   .     S
V28    Er61    9.998   1_655 S
V28    Er103  10.002   1_655 S
V28    V98     9.999   .     S
Er29   V64     9.998   .     S
Er29   V36    10.007   1_556 S
Er29   V96     9.994   .     S
V30    V64     9.999   1_554 S
V30    Er120   9.998   .     S
V30    Er63    9.998   .     S
V30    Er105  10.002   .     S
V30    Er23   10.007   1_554 S
V30    V100    9.999   .     S
Er31   V72     9.998   1_545 S
Er31   V20    10.007   1_655 S
Er31   V86     9.994   1_655 S
V32    V72     9.999   .     S
V32    Er118   9.998   1_665 S
V32    Er71    9.998   .     S
V32    Er101  10.002   .     S
V32    V114    9.999   .     S
Er33   V68     9.998   .     S
Er33   V88     9.994   .     S
V34    V68     9.999   .     S
V34    Er119   9.998   .     S
V34    Er67    9.998   1_545 S
V34    Er97   10.002   .     S
V34    V110    9.999   .     S
Er35   V70     9.998   1_455 S
Er35   V24    10.007   1_556 S
Er35   V90     9.994   .     S
V36    V70     9.999   1_454 S
V36    Er120   9.998   .     S
V36    Er69    9.998   1_455 S
V36    Er99   10.002   .     S
V36    Er29   10.007   1_554 S
V36    V112    9.999   1_455 S
Er37   V44    10.007   1_655 S
Er37   V104    9.994   1_655 S
V38    Er121   9.998   1_665 S
V38    Er95   10.002   1_565 S
V38    Er49   10.007   1_565 S
V38    V84     9.999   .     S
Er39   V46    10.007   .     S
Er39   V106    9.994   .     S
V40    Er122   9.998   .     S
V40    Er91   10.002   .     S
V40    Er51   10.007   .     S
V40    V80     9.999   .     S
Er41   V4      9.998   1_455 S
Er41   V48    10.007   .     S
Er41   V108    9.994   .     S
V42    V4      9.999   1_455 S
V42    Er123   9.998   .     S
V42    Er3     9.998   1_455 S
V42    Er93   10.002   .     S
V42    Er53   10.007   .     S
V42    V82     9.999   1_455 S
Er43   V12     9.998   1_545 S
Er43   V50    10.007   .     S
Er43   V110    9.994   .     S
V44    Er121   9.998   1_565 S
V44    Er83   10.002   1_455 S
V44    Er37   10.007   1_455 S
V44    V90     9.999   .     S
Er45   V52    10.007   .     S
Er45   V112    9.994   .     S
V46    Er122   9.998   .     S
V46    Er7     9.998   1_545 S
V46    Er79   10.002   .     S
V46    V86     9.999   1_655 S
Er47   V54    10.007   .     S
Er47   V114    9.994   .     S
V48    Er123   9.998   .     S
V48    Er81   10.002   .     S
V48    V88     9.999   .     S
Er49   V18     9.998   1_655 S
Er49   V38    10.007   1_545 S
Er49   V98     9.994   .     S
V50    Er121   9.998   .     S
V50    Er89   10.002   .     S
V50    V96     9.999   .     S
Er51   V100    9.994   .     S
V52    Er122   9.998   .     S
V52    Er13    9.998   1_655 S
V52    Er85   10.002   1_655 S
V52    V92     9.999   .     S
Er53   V16     9.998   1_565 S
Er53   V102    9.994   .     S
V54    V16     9.999   1_565 S
V54    Er123   9.998   .     S
V54    Er15    9.998   1_565 S
V54    Er87   10.002   .     S
V54    V94     9.999   1_565 S
Er55   V62    10.007   1_565 S
Er55   V98     9.994   1_565 S
V56    Er124   9.998   1_665 S
V56    Er93   10.002   1_655 S
V56    Er67   10.007   1_655 S
V56    V88     9.999   .     S
Er57   V24     9.998   1_545 S
Er57   V64    10.007   1_554 S
Er57   V100    9.994   .     S
V58    V24     9.999   1_546 S
V58    Er125   9.998   .     S
V58    Er23    9.998   1_545 S
V58    Er95   10.002   .     S
V58    Er69   10.007   1_556 S
V58    V90     9.999   1_545 S
Er59   V66    10.007   .     S
Er59   V102    9.994   .     S
V60    Er126   9.998   .     S
V60    Er91   10.002   .     S
V60    Er71   10.007   .     S
V60    V86     9.999   .     S
Er61   V28     9.998   1_455 S
Er61   V68    10.007   .     S
Er61   V110    9.994   .     S
V62    Er124   9.998   1_655 S
V62    Er87   10.002   1_545 S
V62    Er55   10.007   1_545 S
V62    V82     9.999   .     S
Er63   V70    10.007   1_554 S
Er63   V112    9.994   .     S
V64    V30     9.999   1_556 S
V64    Er125   9.998   .     S
V64    Er89   10.002   .     S
V64    Er57   10.007   1_556 S
V64    V84     9.999   .     S
Er65   V72    10.007   .     S
Er65   V114    9.994   .     S
V66    Er126   9.998   .     S
V66    Er25    9.998   1_455 S
V66    Er85   10.002   .     S
V66    V80     9.999   1_565 S
Er67   V34     9.998   1_565 S
Er67   V56    10.007   1_455 S
Er67   V104    9.994   .     S
V68    Er124   9.998   .     S
V68    Er81   10.002   .     S
V68    V94     9.999   .     S
Er69   V36     9.998   1_655 S
Er69   V58    10.007   1_554 S
Er69   V106    9.994   .     S
V70    V36     9.999   1_656 S
V70    Er125   9.998   .     S
V70    Er35    9.998   1_655 S
V70    Er83   10.002   .     S
V70    Er63   10.007   1_556 S
V70    V96     9.999   1_655 S
Er71   V108    9.994   .     S
V72    Er126   9.998   .     S
V72    Er31    9.998   1_565 S
V72    Er79   10.002   1_565 S
V72    V92     9.999   .     S
Er73   V86     9.999   .     S
Er73   V92     9.999   1_445 S
Er73   V80     9.999   .     S
Er74   V88     9.999   .     S
Er74   V94     9.999   .     S
Er74   V82     9.999   .     S
Er75   V90     9.999   .     S
Er75   V96     9.999   .     S
Er75   V84     9.999   .     S
Er76   V104    9.999   1_545 S
Er76   V110    9.999   .     S
Er76   V98     9.999   1_455 S
Er77   V106    9.999   .     S
Er77   V112    9.999   .     S
Er77   V100    9.999   .     S
Er78   V108    9.999   .     S
Er78   V114    9.999   .     S
Er78   V102    9.999   .     S
Er79   V72    10.002   1_545 S
Er79   V80     9.999   .     S
V80    Er13    9.994   1_545 S
V80    V66     9.999   1_545 S
Er81   V82     9.999   1_455 S
V82    Er81    9.999   1_655 S
V82    V42     9.999   1_655 S
Er83   V44    10.002   1_655 S
Er83   V84     9.999   .     S
Er85   V52    10.002   1_455 S
Er85   V86     9.999   .     S
V86    Er31    9.994   1_455 S
V86    V46     9.999   1_455 S
Er87   V62    10.002   1_565 S
Er87   V88     9.999   .     S
Er89   V90     9.999   1_545 S
V90    Er89    9.999   1_565 S
V90    V58     9.999   1_565 S
Er91   V92     9.999   .     S
V92    Er73    9.999   1_665 S
Er93   V56    10.002   1_455 S
Er93   V94     9.999   1_565 S
V94    Er93    9.999   1_545 S
V94    V54     9.999   1_545 S
Er95   V38    10.002   1_545 S
Er95   V96     9.999   1_655 S
V96    Er95    9.999   1_455 S
V96    V70     9.999   1_455 S
Er97   V12    10.002   1_545 S
Er97   V98     9.999   .     S
V98    Er76    9.999   1_655 S
V98    Er55    9.994   1_545 S
V98    V6      9.999   1_545 S
Er99   V8     10.002   1_455 S
Er99   V100    9.999   .     S
Er101  V102    9.999   1_655 S
V102   Er101   9.999   1_455 S
V102   V4      9.999   1_455 S
Er103  V28    10.002   1_455 S
Er103  V104    9.999   .     S
V104   Er76    9.999   1_565 S
V104   Er37    9.994   1_455 S
V104   V22     9.999   1_455 S
Er105  V106    9.999   1_565 S
V106   Er105   9.999   1_545 S
V106   V24     9.999   1_545 S
Er107  V26    10.002   1_545 S
Er107  V108    9.999   .     S
Er109  V110    9.999   .     S
Er111  V2     10.002   1_565 S
Er111  V112    9.999   1_455 S
V112   Er111   9.999   1_655 S
V112   V36     9.999   1_655 S
Er113  V20    10.002   1_655 S
Er113  V114    9.999   1_545 S
V114   Er113   9.999   1_565 S
V114   V16     9.999   1_565 S
Er115  V8      9.998   1_455 S
Er115  V14     9.998   1_445 S
Er118  V26     9.998   1_545 S
Er118  V32     9.998   1_445 S
Er121  V38     9.998   1_445 S
Er121  V44     9.998   1_545 S
Er124  V56     9.998   1_445 S
Er124  V62     9.998   1_455 S
