data_tru
_audit_creation_date              2018-07-09
_audit_creation_method            'Materials Studio'
_symmetry_space_group_name_H-M    'P1'
_symmetry_Int_Tables_number       1
_symmetry_cell_setting            triclinic
loop_
_symmetry_equiv_pos_as_xyz
  x,y,z
_cell_length_a                    53.0070
_cell_length_b                    53.0070
_cell_length_c                    53.0070
_cell_angle_alpha                 90.0000
_cell_angle_beta                  90.0000
_cell_angle_gamma                 90.0000
loop_
_atom_site_label
_atom_site_type_symbol
_atom_site_fract_x
_atom_site_fract_y
_atom_site_fract_z
_atom_site_U_iso_or_equiv
_atom_site_adp_type
_atom_site_occupancy
V1     V     0.00000   0.32210   0.32210   0.00000  Uiso   1.00
V2     V     0.00000   0.67790   0.32210   0.00000  Uiso   1.00
V3     V     0.00000   0.32210   0.67790   0.00000  Uiso   1.00
V4     V     0.00000   0.67790   0.67790   0.00000  Uiso   1.00
V5     V     0.32210   0.00000   0.32210   0.00000  Uiso   1.00
V6     V     0.32210   0.00000   0.67790   0.00000  Uiso   1.00
V7     V     0.67790   0.00000   0.32210   0.00000  Uiso   1.00
V8     V     0.67790   0.00000   0.67790   0.00000  Uiso   1.00
V9     V     0.32210   0.32210   0.00000   0.00000  Uiso   1.00
V10    V     0.67790   0.32210   0.00000   0.00000  Uiso   1.00
V11    V     0.32210   0.67790   0.00000   0.00000  Uiso   1.00
V12    V     0.67790   0.67790   0.00000   0.00000  Uiso   1.00
Er13   Er    0.18870   0.00000   0.18870   0.00000  Uiso   1.00
Er14   Er    0.81130   0.00000   0.18870   0.00000  Uiso   1.00
Er15   Er    0.81130   0.00000   0.81130   0.00000  Uiso   1.00
Er16   Er    0.18870   0.00000   0.81130   0.00000  Uiso   1.00
Er17   Er    0.18870   0.18870   0.00000   0.00000  Uiso   1.00
Er18   Er    0.18870   0.81130   0.00000   0.00000  Uiso   1.00
Er19   Er    0.81130   0.81130   0.00000   0.00000  Uiso   1.00
Er20   Er    0.81130   0.18870   0.00000   0.00000  Uiso   1.00
Er21   Er    0.00000   0.18870   0.18870   0.00000  Uiso   1.00
Er22   Er    0.00000   0.18870   0.81130   0.00000  Uiso   1.00
Er23   Er    0.00000   0.81130   0.81130   0.00000  Uiso   1.00
Er24   Er    0.00000   0.81130   0.18870   0.00000  Uiso   1.00
Ti25   Ti    0.00000   0.00000   0.18830   0.00000  Uiso   1.00
Ti26   Ti    0.00000   0.00000   0.81170   0.00000  Uiso   1.00
Ti27   Ti    0.18830   0.00000   0.00000   0.00000  Uiso   1.00
Ti28   Ti    0.81170   0.00000   0.00000   0.00000  Uiso   1.00
Ti29   Ti    0.00000   0.18830   0.00000   0.00000  Uiso   1.00
Ti30   Ti    0.00000   0.81170   0.00000   0.00000  Uiso   1.00
Ce31   Ce    0.17910   0.36400   0.36400   0.00000  Uiso   1.00
Ce32   Ce    0.82090   0.63600   0.36400   0.00000  Uiso   1.00
Ce33   Ce    0.82090   0.36400   0.63600   0.00000  Uiso   1.00
Ce34   Ce    0.17910   0.63600   0.63600   0.00000  Uiso   1.00
Ce35   Ce    0.36400   0.17910   0.36400   0.00000  Uiso   1.00
Ce36   Ce    0.36400   0.82090   0.63600   0.00000  Uiso   1.00
Ce37   Ce    0.63600   0.82090   0.36400   0.00000  Uiso   1.00
Ce38   Ce    0.63600   0.17910   0.63600   0.00000  Uiso   1.00
Ce39   Ce    0.36400   0.36400   0.17910   0.00000  Uiso   1.00
Ce40   Ce    0.63600   0.36400   0.82090   0.00000  Uiso   1.00
Ce41   Ce    0.36400   0.63600   0.82090   0.00000  Uiso   1.00
Ce42   Ce    0.63600   0.63600   0.17910   0.00000  Uiso   1.00
Ce43   Ce    0.36400   0.17910   0.63600   0.00000  Uiso   1.00
Ce44   Ce    0.63600   0.82090   0.63600   0.00000  Uiso   1.00
Ce45   Ce    0.36400   0.82090   0.36400   0.00000  Uiso   1.00
Ce46   Ce    0.63600   0.17910   0.36400   0.00000  Uiso   1.00
Ce47   Ce    0.17910   0.36400   0.63600   0.00000  Uiso   1.00
Ce48   Ce    0.82090   0.36400   0.36400   0.00000  Uiso   1.00
Ce49   Ce    0.82090   0.63600   0.63600   0.00000  Uiso   1.00
Ce50   Ce    0.17910   0.63600   0.36400   0.00000  Uiso   1.00
Ce51   Ce    0.36400   0.36400   0.82090   0.00000  Uiso   1.00
Ce52   Ce    0.36400   0.63600   0.17910   0.00000  Uiso   1.00
Ce53   Ce    0.63600   0.36400   0.17910   0.00000  Uiso   1.00
Ce54   Ce    0.63600   0.63600   0.82090   0.00000  Uiso   1.00
S55    S     0.27130   0.27130   0.50000   0.00000  Uiso   1.00
S56    S     0.72870   0.72870   0.50000   0.00000  Uiso   1.00
S57    S     0.72870   0.27130   0.50000   0.00000  Uiso   1.00
S58    S     0.27130   0.72870   0.50000   0.00000  Uiso   1.00
S59    S     0.50000   0.27130   0.27130   0.00000  Uiso   1.00
S60    S     0.50000   0.72870   0.72870   0.00000  Uiso   1.00
S61    S     0.50000   0.72870   0.27130   0.00000  Uiso   1.00
S62    S     0.50000   0.27130   0.72870   0.00000  Uiso   1.00
S63    S     0.27130   0.50000   0.27130   0.00000  Uiso   1.00
S64    S     0.72870   0.50000   0.72870   0.00000  Uiso   1.00
S65    S     0.27130   0.50000   0.72870   0.00000  Uiso   1.00
S66    S     0.72870   0.50000   0.27130   0.00000  Uiso   1.00
loop_
_geom_bond_atom_site_label_1
_geom_bond_atom_site_label_2
_geom_bond_distance
_geom_bond_site_symmetry_2
_ccdc_geom_bond_type
V1     Er21   10.000   .     S
V1     Ce31   10.000   .     S
V1     Ce48   10.000   1_455 S
V2     Er24   10.000   .     S
V2     Ce32   10.000   1_455 S
V2     Ce50   10.000   .     S
V3     Er22   10.000   .     S
V3     Ce33   10.000   1_455 S
V3     Ce47   10.000   .     S
V4     Er23   10.000   .     S
V4     Ce34   10.000   .     S
V4     Ce49   10.000   1_455 S
V5     Er13   10.000   .     S
V5     Ce35   10.000   .     S
V5     Ce45   10.000   1_545 S
V6     Er16   10.000   .     S
V6     Ce36   10.000   1_545 S
V6     Ce43   10.000   .     S
V7     Er14   10.000   .     S
V7     Ce37   10.000   1_545 S
V7     Ce46   10.000   .     S
V8     Er15   10.000   .     S
V8     Ce38   10.000   .     S
V8     Ce44   10.000   1_545 S
V9     Er17   10.000   .     S
V9     Ce39   10.000   .     S
V9     Ce51   10.000   1_554 S
V10    Er20   10.000   .     S
V10    Ce40   10.000   1_554 S
V10    Ce53   10.000   .     S
V11    Er18   10.000   .     S
V11    Ce41   10.000   1_554 S
V11    Ce52   10.000   .     S
V12    Er19   10.000   .     S
V12    Ce42   10.000   .     S
V12    Ce54   10.000   1_554 S
Er13   Ti27   10.002   .     S
Er13   Ti25   10.002   .     S
Er14   Ti28   10.002   .     S
Er14   Ti25   10.002   1_655 S
Er15   Ti28   10.002   1_556 S
Er15   Ti26   10.002   1_655 S
Er16   Ti27   10.002   1_556 S
Er16   Ti26   10.002   .     S
Er17   Ti29   10.002   .     S
Er17   Ti27   10.002   .     S
Er18   Ti30   10.002   .     S
Er18   Ti27   10.002   1_565 S
Er19   Ti30   10.002   1_655 S
Er19   Ti28   10.002   1_565 S
Er20   Ti29   10.002   1_655 S
Er20   Ti28   10.002   .     S
Er21   Ti25   10.002   .     S
Er21   Ti29   10.002   .     S
Er22   Ti26   10.002   .     S
Er22   Ti29   10.002   1_556 S
Er23   Ti26   10.002   1_565 S
Er23   Ti30   10.002   1_556 S
Er24   Ti25   10.002   1_565 S
Er24   Ti30   10.002   .     S
Ti25   Er24   10.002   1_545 S
Ti25   Er14   10.002   1_455 S
Ti26   Er23   10.002   1_545 S
Ti26   Er15   10.002   1_455 S
Ti27   Er16   10.002   1_554 S
Ti27   Er18   10.002   1_545 S
Ti28   Er15   10.002   1_554 S
Ti28   Er19   10.002   1_545 S
Ti29   Er20   10.002   1_455 S
Ti29   Er22   10.002   1_554 S
Ti30   Er19   10.002   1_455 S
Ti30   Er23   10.002   1_554 S
Ce31   S63    10.000   .     S
Ce31   S55    10.000   .     S
Ce32   V2     10.000   1_655 S
Ce32   S66    10.000   .     S
Ce32   S56    10.000   .     S
Ce33   V3     10.000   1_655 S
Ce33   S64    10.000   .     S
Ce33   S57    10.000   .     S
Ce34   S65    10.000   .     S
Ce34   S58    10.000   .     S
Ce35   S55    10.000   .     S
Ce35   S59    10.000   .     S
Ce36   V6     10.000   1_565 S
Ce36   S58    10.000   .     S
Ce36   S60    10.000   .     S
Ce37   V7     10.000   1_565 S
Ce37   S56    10.000   .     S
Ce37   S61    10.000   .     S
Ce38   S57    10.000   .     S
Ce38   S62    10.000   .     S
Ce39   S59    10.000   .     S
Ce39   S63    10.000   .     S
Ce40   V10    10.000   1_556 S
Ce40   S62    10.000   .     S
Ce40   S64    10.000   .     S
Ce41   V11    10.000   1_556 S
Ce41   S60    10.000   .     S
Ce41   S65    10.000   .     S
Ce42   S61    10.000   .     S
Ce42   S66    10.000   .     S
Ce43   S62    10.000   .     S
Ce43   S55    10.000   .     S
Ce44   V8     10.000   1_565 S
Ce44   S60    10.000   .     S
Ce44   S56    10.000   .     S
Ce45   V5     10.000   1_565 S
Ce45   S61    10.000   .     S
Ce45   S58    10.000   .     S
Ce46   S59    10.000   .     S
Ce46   S57    10.000   .     S
Ce47   S55    10.000   .     S
Ce47   S65    10.000   .     S
Ce48   V1     10.000   1_655 S
Ce48   S57    10.000   .     S
Ce48   S66    10.000   .     S
Ce49   V4     10.000   1_655 S
Ce49   S56    10.000   .     S
Ce49   S64    10.000   .     S
Ce50   S58    10.000   .     S
Ce50   S63    10.000   .     S
Ce51   V9     10.000   1_556 S
Ce51   S65    10.000   .     S
Ce51   S62    10.000   .     S
Ce52   S63    10.000   .     S
Ce52   S61    10.000   .     S
Ce53   S66    10.000   .     S
Ce53   S59    10.000   .     S
Ce54   V12    10.000   1_556 S
Ce54   S64    10.000   .     S
Ce54   S60    10.000   .     S
