data_ttt
_audit_creation_date              2019-08-20
_audit_creation_method            'Materials Studio'
_symmetry_space_group_name_H-M    'P1'
_symmetry_Int_Tables_number       1
_symmetry_cell_setting            triclinic
loop_
_symmetry_equiv_pos_as_xyz
  x,y,z
_cell_length_a                    24.4950
_cell_length_b                    24.4950
_cell_length_c                    24.4950
_cell_angle_alpha                 90.0000
_cell_angle_beta                  90.0000
_cell_angle_gamma                 90.0000
loop_
_atom_site_label
_atom_site_type_symbol
_atom_site_fract_x
_atom_site_fract_y
_atom_site_fract_z
_atom_site_U_iso_or_equiv
_atom_site_adp_type
_atom_site_occupancy
V1     V     0.33333   0.33333   0.33333   0.00000  Uiso   1.00
V2     V     0.33333   0.83333   0.83333   0.00000  Uiso   1.00
V3     V     0.83333   0.33333   0.83333   0.00000  Uiso   1.00
V4     V     0.83333   0.83333   0.33333   0.00000  Uiso   1.00
V5     V     0.66667   0.66667   0.33333   0.00000  Uiso   1.00
V6     V     0.66667   0.16667   0.83333   0.00000  Uiso   1.00
V7     V     0.16667   0.66667   0.83333   0.00000  Uiso   1.00
V8     V     0.16667   0.16667   0.33333   0.00000  Uiso   1.00
V9     V     0.66667   0.33333   0.66667   0.00000  Uiso   1.00
V10    V     0.66667   0.83333   0.16667   0.00000  Uiso   1.00
V11    V     0.16667   0.33333   0.16667   0.00000  Uiso   1.00
V12    V     0.16667   0.83333   0.66667   0.00000  Uiso   1.00
V13    V     0.33333   0.66667   0.66667   0.00000  Uiso   1.00
V14    V     0.33333   0.16667   0.16667   0.00000  Uiso   1.00
V15    V     0.83333   0.66667   0.16667   0.00000  Uiso   1.00
V16    V     0.83333   0.16667   0.66667   0.00000  Uiso   1.00
Er17   Er    0.00000   0.00000   0.00000   0.00000  Uiso   1.00
Er18   Er    0.00000   0.50000   0.50000   0.00000  Uiso   1.00
Er19   Er    0.50000   0.00000   0.50000   0.00000  Uiso   1.00
Er20   Er    0.50000   0.50000   0.00000   0.00000  Uiso   1.00
loop_
_geom_bond_atom_site_label_1
_geom_bond_atom_site_label_2
_geom_bond_distance
_geom_bond_site_symmetry_2
_ccdc_geom_bond_type
V1     Er18   10.000   .     S
V1     Er19   10.000   .     S
V1     Er20   10.000   .     S
V2     Er17   10.000   1_566 S
V2     Er20   10.000   1_556 S
V2     Er19   10.000   1_565 S
V3     Er20   10.000   1_556 S
V3     Er17   10.000   1_656 S
V3     Er18   10.000   1_655 S
V4     Er19   10.000   1_565 S
V4     Er18   10.000   1_655 S
V4     Er17   10.000   1_665 S
V5     Er18   10.000   1_655 S
V5     Er19   10.000   1_565 S
V5     Er20   10.000   .     S
V6     Er17   10.000   1_656 S
V6     Er20   10.000   1_556 S
V6     Er19   10.000   .     S
V7     Er20   10.000   1_556 S
V7     Er17   10.000   1_566 S
V7     Er18   10.000   .     S
V8     Er19   10.000   .     S
V8     Er18   10.000   .     S
V8     Er17   10.000   .     S
V9     Er18   10.000   1_655 S
V9     Er19   10.000   .     S
V9     Er20   10.000   1_556 S
V10    Er17   10.000   1_665 S
V10    Er20   10.000   .     S
V10    Er19   10.000   1_565 S
V11    Er20   10.000   .     S
V11    Er17   10.000   .     S
V11    Er18   10.000   .     S
V12    Er19   10.000   1_565 S
V12    Er18   10.000   .     S
V12    Er17   10.000   1_566 S
V13    Er18   10.000   .     S
V13    Er19   10.000   1_565 S
V13    Er20   10.000   1_556 S
V14    Er17   10.000   .     S
V14    Er20   10.000   .     S
V14    Er19   10.000   .     S
V15    Er20   10.000   .     S
V15    Er17   10.000   1_665 S
V15    Er18   10.000   1_655 S
V16    Er19   10.000   .     S
V16    Er18   10.000   1_655 S
V16    Er17   10.000   1_656 S
Er17   V10    10.000   1_445 S
Er17   V6     10.000   1_454 S
Er17   V2     10.000   1_544 S
Er17   V7     10.000   1_544 S
Er17   V15    10.000   1_445 S
Er17   V3     10.000   1_454 S
Er17   V16    10.000   1_454 S
Er17   V12    10.000   1_544 S
Er17   V4     10.000   1_445 S
Er18   V9     10.000   1_455 S
Er18   V5     10.000   1_455 S
Er18   V16    10.000   1_455 S
Er18   V4     10.000   1_455 S
Er18   V15    10.000   1_455 S
Er18   V3     10.000   1_455 S
Er19   V12    10.000   1_545 S
Er19   V4     10.000   1_545 S
Er19   V5     10.000   1_545 S
Er19   V13    10.000   1_545 S
Er19   V10    10.000   1_545 S
Er19   V2     10.000   1_545 S
Er20   V7     10.000   1_554 S
Er20   V3     10.000   1_554 S
Er20   V6     10.000   1_554 S
Er20   V2     10.000   1_554 S
Er20   V13    10.000   1_554 S
Er20   V9     10.000   1_554 S
