data_ucp
_audit_creation_date              2018-06-25
_audit_creation_method            'Materials Studio'
_symmetry_space_group_name_H-M    'P1'
_symmetry_Int_Tables_number       1
_symmetry_cell_setting            triclinic
loop_
_symmetry_equiv_pos_as_xyz
  x,y,z
_cell_length_a                    44.6410
_cell_length_b                    44.6410
_cell_length_c                    44.6410
_cell_angle_alpha                 90.0000
_cell_angle_beta                  90.0000
_cell_angle_gamma                 90.0000
loop_
_atom_site_label
_atom_site_type_symbol
_atom_site_fract_x
_atom_site_fract_y
_atom_site_fract_z
_atom_site_U_iso_or_equiv
_atom_site_adp_type
_atom_site_occupancy
V1     V     0.00000   0.25870   0.25870   0.00000  Uiso   1.00
V2     V     0.00000   0.74130   0.25870   0.00000  Uiso   1.00
V3     V     0.00000   0.25870   0.74130   0.00000  Uiso   1.00
V4     V     0.00000   0.74130   0.74130   0.00000  Uiso   1.00
V5     V     0.25870   0.00000   0.25870   0.00000  Uiso   1.00
V6     V     0.25870   0.00000   0.74130   0.00000  Uiso   1.00
V7     V     0.74130   0.00000   0.25870   0.00000  Uiso   1.00
V8     V     0.74130   0.00000   0.74130   0.00000  Uiso   1.00
V9     V     0.25870   0.25870   0.00000   0.00000  Uiso   1.00
V10    V     0.74130   0.25870   0.00000   0.00000  Uiso   1.00
V11    V     0.25870   0.74130   0.00000   0.00000  Uiso   1.00
V12    V     0.74130   0.74130   0.00000   0.00000  Uiso   1.00
Er13   Er    0.12940   0.12940   0.33800   0.00000  Uiso   1.00
Er14   Er    0.87060   0.87060   0.33800   0.00000  Uiso   1.00
Er15   Er    0.87060   0.12940   0.66200   0.00000  Uiso   1.00
Er16   Er    0.12940   0.87060   0.66200   0.00000  Uiso   1.00
Er17   Er    0.33800   0.12940   0.12940   0.00000  Uiso   1.00
Er18   Er    0.33800   0.87060   0.87060   0.00000  Uiso   1.00
Er19   Er    0.66200   0.87060   0.12940   0.00000  Uiso   1.00
Er20   Er    0.66200   0.12940   0.87060   0.00000  Uiso   1.00
Er21   Er    0.12940   0.33800   0.12940   0.00000  Uiso   1.00
Er22   Er    0.87060   0.33800   0.87060   0.00000  Uiso   1.00
Er23   Er    0.12940   0.66200   0.87060   0.00000  Uiso   1.00
Er24   Er    0.87060   0.66200   0.12940   0.00000  Uiso   1.00
Er25   Er    0.12940   0.12940   0.66200   0.00000  Uiso   1.00
Er26   Er    0.87060   0.87060   0.66200   0.00000  Uiso   1.00
Er27   Er    0.12940   0.87060   0.33800   0.00000  Uiso   1.00
Er28   Er    0.87060   0.12940   0.33800   0.00000  Uiso   1.00
Er29   Er    0.12940   0.33800   0.87060   0.00000  Uiso   1.00
Er30   Er    0.87060   0.33800   0.12940   0.00000  Uiso   1.00
Er31   Er    0.87060   0.66200   0.87060   0.00000  Uiso   1.00
Er32   Er    0.12940   0.66200   0.12940   0.00000  Uiso   1.00
Er33   Er    0.33800   0.12940   0.87060   0.00000  Uiso   1.00
Er34   Er    0.33800   0.87060   0.12940   0.00000  Uiso   1.00
Er35   Er    0.66200   0.12940   0.12940   0.00000  Uiso   1.00
Er36   Er    0.66200   0.87060   0.87060   0.00000  Uiso   1.00
loop_
_geom_bond_atom_site_label_1
_geom_bond_atom_site_label_2
_geom_bond_distance
_geom_bond_site_symmetry_2
_ccdc_geom_bond_type
V1     Er21    8.900   .     S
V1     Er28    8.900   1_455 S
V1     Er30    8.900   1_455 S
V1     Er13    8.900   .     S
V2     Er24    8.900   1_455 S
V2     Er27    8.900   .     S
V2     Er32    8.900   .     S
V2     Er14    8.900   1_455 S
V3     Er22    8.900   1_455 S
V3     Er25    8.900   .     S
V3     Er29    8.900   .     S
V3     Er15    8.900   1_455 S
V4     Er23    8.900   .     S
V4     Er26    8.900   1_455 S
V4     Er31    8.900   1_455 S
V4     Er16    8.900   .     S
V5     Er13    8.900   .     S
V5     Er34    8.900   1_545 S
V5     Er27    8.900   1_545 S
V5     Er17    8.900   .     S
V6     Er16    8.900   1_545 S
V6     Er33    8.900   .     S
V6     Er25    8.900   .     S
V6     Er18    8.900   1_545 S
V7     Er14    8.900   1_545 S
V7     Er35    8.900   .     S
V7     Er28    8.900   .     S
V7     Er19    8.900   1_545 S
V8     Er15    8.900   .     S
V8     Er36    8.900   1_545 S
V8     Er26    8.900   1_545 S
V8     Er20    8.900   .     S
V9     Er17    8.900   .     S
V9     Er29    8.900   1_554 S
V9     Er33    8.900   1_554 S
V9     Er21    8.900   .     S
V10    Er20    8.900   1_554 S
V10    Er30    8.900   .     S
V10    Er35    8.900   .     S
V10    Er22    8.900   1_554 S
V11    Er18    8.900   1_554 S
V11    Er32    8.900   .     S
V11    Er34    8.900   .     S
V11    Er23    8.900   1_554 S
V12    Er19    8.900   .     S
V12    Er31    8.900   1_554 S
V12    Er36    8.900   1_554 S
V12    Er24    8.900   .     S
Er13   Er25   14.464   .     S
Er14   V7      8.900   1_565 S
Er14   V2      8.900   1_655 S
Er14   Er26   14.464   .     S
Er15   V3      8.900   1_655 S
Er15   Er28   14.464   .     S
Er16   V6      8.900   1_565 S
Er16   Er27   14.464   .     S
Er17   Er35   14.464   .     S
Er18   V11     8.900   1_556 S
Er18   V6      8.900   1_565 S
Er18   Er36   14.464   .     S
Er19   V7      8.900   1_565 S
Er19   Er34   14.464   .     S
Er20   V10     8.900   1_556 S
Er20   Er33   14.464   .     S
Er21   Er32   14.464   .     S
Er22   V3      8.900   1_655 S
Er22   V10     8.900   1_556 S
Er22   Er31   14.464   .     S
Er23   V11     8.900   1_556 S
Er23   Er29   14.464   .     S
Er24   V2      8.900   1_655 S
Er24   Er30   14.464   .     S
Er26   V4      8.900   1_655 S
Er26   V8      8.900   1_565 S
Er27   V5      8.900   1_565 S
Er28   V1      8.900   1_655 S
Er29   V9      8.900   1_556 S
Er30   V1      8.900   1_655 S
Er31   V12     8.900   1_556 S
Er31   V4      8.900   1_655 S
Er33   V9      8.900   1_556 S
Er34   V5      8.900   1_565 S
Er36   V8      8.900   1_565 S
Er36   V12     8.900   1_556 S
