data_xbf
_audit_creation_date              2018-10-08
_audit_creation_method            'Materials Studio'
_symmetry_space_group_name_H-M    'P1'
_symmetry_Int_Tables_number       1
_symmetry_cell_setting            triclinic
loop_
_symmetry_equiv_pos_as_xyz
  x,y,z
_cell_length_a                    44.4950
_cell_length_b                    44.4950
_cell_length_c                    44.4950
_cell_angle_alpha                 90.0000
_cell_angle_beta                  90.0000
_cell_angle_gamma                 90.0000
loop_
_atom_site_label
_atom_site_type_symbol
_atom_site_fract_x
_atom_site_fract_y
_atom_site_fract_z
_atom_site_U_iso_or_equiv
_atom_site_adp_type
_atom_site_occupancy
V1     V     0.00000   0.25000   0.25000   0.00000  Uiso   1.00
V2     V     0.50000   0.25000   0.75000   0.00000  Uiso   1.00
V3     V     0.00000   0.75000   0.25000   0.00000  Uiso   1.00
V4     V     0.50000   0.75000   0.75000   0.00000  Uiso   1.00
V5     V     0.50000   0.25000   0.25000   0.00000  Uiso   1.00
V6     V     0.00000   0.25000   0.75000   0.00000  Uiso   1.00
V7     V     0.00000   0.75000   0.75000   0.00000  Uiso   1.00
V8     V     0.50000   0.75000   0.25000   0.00000  Uiso   1.00
V9     V     0.25000   0.00000   0.25000   0.00000  Uiso   1.00
V10    V     0.25000   0.50000   0.75000   0.00000  Uiso   1.00
V11    V     0.25000   0.00000   0.75000   0.00000  Uiso   1.00
V12    V     0.25000   0.50000   0.25000   0.00000  Uiso   1.00
V13    V     0.75000   0.00000   0.25000   0.00000  Uiso   1.00
V14    V     0.75000   0.50000   0.75000   0.00000  Uiso   1.00
V15    V     0.75000   0.00000   0.75000   0.00000  Uiso   1.00
V16    V     0.75000   0.50000   0.25000   0.00000  Uiso   1.00
V17    V     0.25000   0.25000   0.00000   0.00000  Uiso   1.00
V18    V     0.25000   0.75000   0.50000   0.00000  Uiso   1.00
V19    V     0.75000   0.25000   0.00000   0.00000  Uiso   1.00
V20    V     0.75000   0.75000   0.50000   0.00000  Uiso   1.00
V21    V     0.25000   0.25000   0.50000   0.00000  Uiso   1.00
V22    V     0.25000   0.75000   0.00000   0.00000  Uiso   1.00
V23    V     0.75000   0.75000   0.00000   0.00000  Uiso   1.00
V24    V     0.75000   0.25000   0.50000   0.00000  Uiso   1.00
Er25   Er    0.11240   0.11240   0.11240   0.00000  Uiso   1.00
Er26   Er    0.11240   0.61240   0.61240   0.00000  Uiso   1.00
Er27   Er    0.61240   0.11240   0.61240   0.00000  Uiso   1.00
Er28   Er    0.61240   0.61240   0.11240   0.00000  Uiso   1.00
Er29   Er    0.88760   0.88760   0.11240   0.00000  Uiso   1.00
Er30   Er    0.88760   0.38760   0.61240   0.00000  Uiso   1.00
Er31   Er    0.38760   0.88760   0.61240   0.00000  Uiso   1.00
Er32   Er    0.38760   0.38760   0.11240   0.00000  Uiso   1.00
Er33   Er    0.88760   0.11240   0.88760   0.00000  Uiso   1.00
Er34   Er    0.88760   0.61240   0.38760   0.00000  Uiso   1.00
Er35   Er    0.38760   0.11240   0.38760   0.00000  Uiso   1.00
Er36   Er    0.38760   0.61240   0.88760   0.00000  Uiso   1.00
Er37   Er    0.11240   0.88760   0.88760   0.00000  Uiso   1.00
Er38   Er    0.11240   0.38760   0.38760   0.00000  Uiso   1.00
Er39   Er    0.61240   0.88760   0.38760   0.00000  Uiso   1.00
Er40   Er    0.61240   0.38760   0.88760   0.00000  Uiso   1.00
Er41   Er    0.11240   0.11240   0.88760   0.00000  Uiso   1.00
Er42   Er    0.11240   0.61240   0.38760   0.00000  Uiso   1.00
Er43   Er    0.61240   0.11240   0.38760   0.00000  Uiso   1.00
Er44   Er    0.61240   0.61240   0.88760   0.00000  Uiso   1.00
Er45   Er    0.88760   0.88760   0.88760   0.00000  Uiso   1.00
Er46   Er    0.88760   0.38760   0.38760   0.00000  Uiso   1.00
Er47   Er    0.38760   0.88760   0.38760   0.00000  Uiso   1.00
Er48   Er    0.38760   0.38760   0.88760   0.00000  Uiso   1.00
Er49   Er    0.11240   0.88760   0.11240   0.00000  Uiso   1.00
Er50   Er    0.11240   0.38760   0.61240   0.00000  Uiso   1.00
Er51   Er    0.61240   0.88760   0.61240   0.00000  Uiso   1.00
Er52   Er    0.61240   0.38760   0.11240   0.00000  Uiso   1.00
Er53   Er    0.88760   0.11240   0.11240   0.00000  Uiso   1.00
Er54   Er    0.88760   0.61240   0.61240   0.00000  Uiso   1.00
Er55   Er    0.38760   0.11240   0.61240   0.00000  Uiso   1.00
Er56   Er    0.38760   0.61240   0.11240   0.00000  Uiso   1.00
loop_
_geom_bond_atom_site_label_1
_geom_bond_atom_site_label_2
_geom_bond_distance
_geom_bond_site_symmetry_2
_ccdc_geom_bond_type
V1     Er53    9.999   1_455 S
V1     Er25    9.999   .     S
V1     Er46    9.999   1_455 S
V1     Er38    9.999   .     S
V2     Er55    9.999   .     S
V2     Er27    9.999   .     S
V2     Er48    9.999   .     S
V2     Er40    9.999   .     S
V3     Er49    9.999   .     S
V3     Er29    9.999   1_455 S
V3     Er42    9.999   .     S
V3     Er34    9.999   1_455 S
V4     Er51    9.999   .     S
V4     Er31    9.999   .     S
V4     Er44    9.999   .     S
V4     Er36    9.999   .     S
V5     Er43    9.999   .     S
V5     Er35    9.999   .     S
V5     Er52    9.999   .     S
V5     Er32    9.999   .     S
V6     Er41    9.999   .     S
V6     Er33    9.999   1_455 S
V6     Er50    9.999   .     S
V6     Er30    9.999   1_455 S
V7     Er45    9.999   1_455 S
V7     Er37    9.999   .     S
V7     Er54    9.999   1_455 S
V7     Er26    9.999   .     S
V8     Er47    9.999   .     S
V8     Er39    9.999   .     S
V8     Er56    9.999   .     S
V8     Er28    9.999   .     S
V9     Er49    9.999   1_545 S
V9     Er25    9.999   .     S
V9     Er47    9.999   1_545 S
V9     Er35    9.999   .     S
V10    Er50    9.999   .     S
V10    Er26    9.999   .     S
V10    Er48    9.999   .     S
V10    Er36    9.999   .     S
V11    Er41    9.999   .     S
V11    Er37    9.999   1_545 S
V11    Er55    9.999   .     S
V11    Er31    9.999   1_545 S
V12    Er42    9.999   .     S
V12    Er38    9.999   .     S
V12    Er56    9.999   .     S
V12    Er32    9.999   .     S
V13    Er53    9.999   .     S
V13    Er29    9.999   1_545 S
V13    Er43    9.999   .     S
V13    Er39    9.999   1_545 S
V14    Er54    9.999   .     S
V14    Er30    9.999   .     S
V14    Er44    9.999   .     S
V14    Er40    9.999   .     S
V15    Er45    9.999   1_545 S
V15    Er33    9.999   .     S
V15    Er51    9.999   1_545 S
V15    Er27    9.999   .     S
V16    Er46    9.999   .     S
V16    Er34    9.999   .     S
V16    Er52    9.999   .     S
V16    Er28    9.999   .     S
V17    Er41    9.999   1_554 S
V17    Er25    9.999   .     S
V17    Er48    9.999   1_554 S
V17    Er32    9.999   .     S
V18    Er42    9.999   .     S
V18    Er26    9.999   .     S
V18    Er47    9.999   .     S
V18    Er31    9.999   .     S
V19    Er53    9.999   .     S
V19    Er33    9.999   1_554 S
V19    Er52    9.999   .     S
V19    Er40    9.999   1_554 S
V20    Er54    9.999   .     S
V20    Er34    9.999   .     S
V20    Er51    9.999   .     S
V20    Er39    9.999   .     S
V21    Er50    9.999   .     S
V21    Er38    9.999   .     S
V21    Er55    9.999   .     S
V21    Er35    9.999   .     S
V22    Er49    9.999   .     S
V22    Er37    9.999   1_554 S
V22    Er56    9.999   .     S
V22    Er36    9.999   1_554 S
V23    Er45    9.999   1_554 S
V23    Er29    9.999   .     S
V23    Er44    9.999   1_554 S
V23    Er28    9.999   .     S
V24    Er46    9.999   .     S
V24    Er30    9.999   .     S
V24    Er43    9.999   .     S
V24    Er27    9.999   .     S
Er25   Er49   10.002   1_545 S
Er25   Er41   10.002   1_554 S
Er25   Er53   10.002   1_455 S
Er26   Er50   10.002   .     S
Er26   Er42   10.002   .     S
Er26   Er54   10.002   1_455 S
Er27   Er51   10.002   1_545 S
Er27   Er43   10.002   .     S
Er27   Er55   10.002   .     S
Er28   Er52   10.002   .     S
Er28   Er44   10.002   1_554 S
Er28   Er56   10.002   .     S
Er29   Er53   10.002   1_565 S
Er29   Er45   10.002   1_554 S
Er29   Er49   10.002   1_655 S
Er29   V3      9.999   1_655 S
Er29   V13     9.999   1_565 S
Er30   Er54   10.002   .     S
Er30   Er46   10.002   .     S
Er30   Er50   10.002   1_655 S
Er30   V6      9.999   1_655 S
Er31   Er55   10.002   1_565 S
Er31   Er47   10.002   .     S
Er31   Er51   10.002   .     S
Er31   V11     9.999   1_565 S
Er32   Er56   10.002   .     S
Er32   Er48   10.002   1_554 S
Er32   Er52   10.002   .     S
Er33   Er45   10.002   1_545 S
Er33   Er53   10.002   1_556 S
Er33   Er41   10.002   1_655 S
Er33   V6      9.999   1_655 S
Er33   V19     9.999   1_556 S
Er34   Er46   10.002   .     S
Er34   Er54   10.002   .     S
Er34   Er42   10.002   1_655 S
Er34   V3      9.999   1_655 S
Er35   Er47   10.002   1_545 S
Er35   Er55   10.002   .     S
Er35   Er43   10.002   .     S
Er36   Er48   10.002   .     S
Er36   Er56   10.002   1_556 S
Er36   Er44   10.002   .     S
Er36   V22     9.999   1_556 S
Er37   Er41   10.002   1_565 S
Er37   Er49   10.002   1_556 S
Er37   Er45   10.002   1_455 S
Er37   V11     9.999   1_565 S
Er37   V22     9.999   1_556 S
Er38   Er42   10.002   .     S
Er38   Er50   10.002   .     S
Er38   Er46   10.002   1_455 S
Er39   Er43   10.002   1_565 S
Er39   Er51   10.002   .     S
Er39   Er47   10.002   .     S
Er39   V13     9.999   1_565 S
Er40   Er44   10.002   .     S
Er40   Er52   10.002   1_556 S
Er40   Er48   10.002   .     S
Er40   V19     9.999   1_556 S
Er41   Er33   10.002   1_455 S
Er41   Er25   10.002   1_556 S
Er41   Er37   10.002   1_545 S
Er41   V17     9.999   1_556 S
Er42   Er34   10.002   1_455 S
Er43   Er39   10.002   1_545 S
Er44   Er28   10.002   1_556 S
Er44   V23     9.999   1_556 S
Er45   Er37   10.002   1_655 S
Er45   Er29   10.002   1_556 S
Er45   Er33   10.002   1_565 S
Er45   V15     9.999   1_565 S
Er45   V7      9.999   1_655 S
Er45   V23     9.999   1_556 S
Er46   Er38   10.002   1_655 S
Er46   V1      9.999   1_655 S
Er47   Er35   10.002   1_565 S
Er47   V9      9.999   1_565 S
Er48   Er32   10.002   1_556 S
Er48   V17     9.999   1_556 S
Er49   Er29   10.002   1_455 S
Er49   Er37   10.002   1_554 S
Er49   Er25   10.002   1_565 S
Er49   V9      9.999   1_565 S
Er50   Er30   10.002   1_455 S
Er51   Er27   10.002   1_565 S
Er51   V15     9.999   1_565 S
Er52   Er40   10.002   1_554 S
Er53   Er25   10.002   1_655 S
Er53   Er33   10.002   1_554 S
Er53   Er29   10.002   1_545 S
Er53   V1      9.999   1_655 S
Er54   Er26   10.002   1_655 S
Er54   V7      9.999   1_655 S
Er55   Er31   10.002   1_545 S
Er56   Er36   10.002   1_554 S
