data_xbq
_audit_creation_date              2018-10-08
_audit_creation_method            'Materials Studio'
_symmetry_space_group_name_H-M    'P1'
_symmetry_Int_Tables_number       1
_symmetry_cell_setting            triclinic
loop_
_symmetry_equiv_pos_as_xyz
  x,y,z
_cell_length_a                    44.4950
_cell_length_b                    44.4950
_cell_length_c                    44.4950
_cell_angle_alpha                 90.0000
_cell_angle_beta                  90.0000
_cell_angle_gamma                 90.0000
loop_
_atom_site_label
_atom_site_type_symbol
_atom_site_fract_x
_atom_site_fract_y
_atom_site_fract_z
_atom_site_U_iso_or_equiv
_atom_site_adp_type
_atom_site_occupancy
V1     V     0.15830   0.15830   0.65830   0.00000  Uiso   1.00
V2     V     0.65830   0.65830   0.65830   0.00000  Uiso   1.00
V3     V     0.84170   0.84170   0.65830   0.00000  Uiso   1.00
V4     V     0.84170   0.15830   0.34170   0.00000  Uiso   1.00
V5     V     0.84170   0.65830   0.84170   0.00000  Uiso   1.00
V6     V     0.15830   0.84170   0.34170   0.00000  Uiso   1.00
V7     V     0.65830   0.84170   0.84170   0.00000  Uiso   1.00
V8     V     0.65830   0.15830   0.15830   0.00000  Uiso   1.00
V9     V     0.65830   0.34170   0.34170   0.00000  Uiso   1.00
V10    V     0.34170   0.84170   0.15830   0.00000  Uiso   1.00
V11    V     0.34170   0.34170   0.65830   0.00000  Uiso   1.00
V12    V     0.34170   0.15830   0.84170   0.00000  Uiso   1.00
V13    V     0.34170   0.65830   0.34170   0.00000  Uiso   1.00
V14    V     0.15830   0.65830   0.15830   0.00000  Uiso   1.00
V15    V     0.15830   0.34170   0.84170   0.00000  Uiso   1.00
V16    V     0.84170   0.34170   0.15830   0.00000  Uiso   1.00
Er17   Er    0.25000   0.25000   0.25000   0.00000  Uiso   1.00
Er18   Er    0.75000   0.75000   0.25000   0.00000  Uiso   1.00
Er19   Er    0.75000   0.25000   0.75000   0.00000  Uiso   1.00
Er20   Er    0.25000   0.75000   0.75000   0.00000  Uiso   1.00
Ti21   Ti    0.02530   0.25000   0.25000   0.00000  Uiso   1.00
Ti22   Ti    0.52530   0.25000   0.75000   0.00000  Uiso   1.00
Ti23   Ti    0.97470   0.75000   0.25000   0.00000  Uiso   1.00
Ti24   Ti    0.47470   0.75000   0.75000   0.00000  Uiso   1.00
Ti25   Ti    0.47470   0.25000   0.25000   0.00000  Uiso   1.00
Ti26   Ti    0.97470   0.25000   0.75000   0.00000  Uiso   1.00
Ti27   Ti    0.02530   0.75000   0.75000   0.00000  Uiso   1.00
Ti28   Ti    0.52530   0.75000   0.25000   0.00000  Uiso   1.00
Ti29   Ti    0.25000   0.02530   0.25000   0.00000  Uiso   1.00
Ti30   Ti    0.25000   0.52530   0.75000   0.00000  Uiso   1.00
Ti31   Ti    0.25000   0.97470   0.75000   0.00000  Uiso   1.00
Ti32   Ti    0.25000   0.47470   0.25000   0.00000  Uiso   1.00
Ti33   Ti    0.75000   0.97470   0.25000   0.00000  Uiso   1.00
Ti34   Ti    0.75000   0.47470   0.75000   0.00000  Uiso   1.00
Ti35   Ti    0.75000   0.02530   0.75000   0.00000  Uiso   1.00
Ti36   Ti    0.75000   0.52530   0.25000   0.00000  Uiso   1.00
Ti37   Ti    0.25000   0.25000   0.02530   0.00000  Uiso   1.00
Ti38   Ti    0.25000   0.75000   0.52530   0.00000  Uiso   1.00
Ti39   Ti    0.75000   0.25000   0.97470   0.00000  Uiso   1.00
Ti40   Ti    0.75000   0.75000   0.47470   0.00000  Uiso   1.00
Ti41   Ti    0.25000   0.25000   0.47470   0.00000  Uiso   1.00
Ti42   Ti    0.25000   0.75000   0.97470   0.00000  Uiso   1.00
Ti43   Ti    0.75000   0.75000   0.02530   0.00000  Uiso   1.00
Ti44   Ti    0.75000   0.25000   0.52530   0.00000  Uiso   1.00
loop_
_geom_bond_atom_site_label_1
_geom_bond_atom_site_label_2
_geom_bond_distance
_geom_bond_site_symmetry_2
_ccdc_geom_bond_type
V1     Ti41   10.002   .     S
V1     Ti31   10.002   1_545 S
V1     Ti26   10.002   1_455 S
V2     Ti24   10.002   .     S
V2     Ti40   10.002   .     S
V2     Ti34   10.002   .     S
V3     Ti40   10.002   .     S
V3     Ti35   10.002   1_565 S
V3     Ti27   10.002   1_655 S
V4     Ti44   10.002   .     S
V4     Ti33   10.002   1_545 S
V4     Ti21   10.002   1_655 S
V5     Ti34   10.002   .     S
V5     Ti27   10.002   1_655 S
V5     Ti43   10.002   1_556 S
V6     Ti38   10.002   .     S
V6     Ti29   10.002   1_565 S
V6     Ti23   10.002   1_455 S
V7     Ti24   10.002   .     S
V7     Ti43   10.002   1_556 S
V7     Ti35   10.002   1_565 S
V8     Ti25   10.002   .     S
V8     Ti39   10.002   1_554 S
V8     Ti33   10.002   1_545 S
V9     Ti25   10.002   .     S
V9     Ti44   10.002   .     S
V9     Ti36   10.002   .     S
V10    Ti28   10.002   .     S
V10    Ti42   10.002   1_554 S
V10    Ti29   10.002   1_565 S
V11    Ti22   10.002   .     S
V11    Ti41   10.002   .     S
V11    Ti30   10.002   .     S
V12    Ti22   10.002   .     S
V12    Ti37   10.002   1_556 S
V12    Ti31   10.002   1_545 S
V13    Ti28   10.002   .     S
V13    Ti38   10.002   .     S
V13    Ti32   10.002   .     S
V14    Ti32   10.002   .     S
V14    Ti23   10.002   1_455 S
V14    Ti42   10.002   1_554 S
V15    Ti30   10.002   .     S
V15    Ti26   10.002   1_455 S
V15    Ti37   10.002   1_556 S
V16    Ti36   10.002   .     S
V16    Ti21   10.002   1_655 S
V16    Ti39   10.002   1_554 S
Er17   Ti25    9.998   .     S
Er17   Ti32    9.998   .     S
Er17   Ti41    9.998   .     S
Er17   Ti29    9.998   .     S
Er17   Ti37    9.998   .     S
Er17   Ti21    9.998   .     S
Er18   Ti28    9.998   .     S
Er18   Ti36    9.998   .     S
Er18   Ti40    9.998   .     S
Er18   Ti33    9.998   .     S
Er18   Ti43    9.998   .     S
Er18   Ti23    9.998   .     S
Er19   Ti22    9.998   .     S
Er19   Ti34    9.998   .     S
Er19   Ti44    9.998   .     S
Er19   Ti35    9.998   .     S
Er19   Ti39    9.998   .     S
Er19   Ti26    9.998   .     S
Er20   Ti24    9.998   .     S
Er20   Ti30    9.998   .     S
Er20   Ti38    9.998   .     S
Er20   Ti31    9.998   .     S
Er20   Ti42    9.998   .     S
Er20   Ti27    9.998   .     S
Ti21   V16    10.002   1_455 S
Ti21   V4     10.002   1_455 S
Ti23   V14    10.002   1_655 S
Ti23   V6     10.002   1_655 S
Ti26   V15    10.002   1_655 S
Ti26   V1     10.002   1_655 S
Ti27   V5     10.002   1_455 S
Ti27   V3     10.002   1_455 S
Ti29   V6     10.002   1_545 S
Ti29   V10    10.002   1_545 S
Ti31   V1     10.002   1_565 S
Ti31   V12    10.002   1_565 S
Ti33   V4     10.002   1_565 S
Ti33   V8     10.002   1_565 S
Ti35   V3     10.002   1_545 S
Ti35   V7     10.002   1_545 S
Ti37   V12    10.002   1_554 S
Ti37   V15    10.002   1_554 S
Ti39   V8     10.002   1_556 S
Ti39   V16    10.002   1_556 S
Ti42   V10    10.002   1_556 S
Ti42   V14    10.002   1_556 S
Ti43   V7     10.002   1_554 S
Ti43   V5     10.002   1_554 S
