data_xlz\(2)
_audit_creation_date              2019-02-28
_audit_creation_method            'Materials Studio'
_symmetry_space_group_name_H-M    'P1'
_symmetry_Int_Tables_number       1
_symmetry_cell_setting            triclinic
loop_
_symmetry_equiv_pos_as_xyz
  x,y,z
_cell_length_a                    49.5050
_cell_length_b                    49.5050
_cell_length_c                    13.5080
_cell_angle_alpha                 90.0000
_cell_angle_beta                  90.0000
_cell_angle_gamma                 120.0000
loop_
_atom_site_label
_atom_site_type_symbol
_atom_site_fract_x
_atom_site_fract_y
_atom_site_fract_z
_atom_site_U_iso_or_equiv
_atom_site_adp_type
_atom_site_occupancy
V1     V     0.14890   0.50000   0.00000   0.00000  Uiso   1.00
V2     V     0.50000   0.64890   0.00000   0.00000  Uiso   1.00
V3     V     0.35110   0.85110   0.00000   0.00000  Uiso   1.00
V4     V     0.85110   0.50000   0.00000   0.00000  Uiso   1.00
V5     V     0.50000   0.35110   0.00000   0.00000  Uiso   1.00
V6     V     0.64890   0.14890   0.00000   0.00000  Uiso   1.00
V7     V     0.50000   0.14890   0.00000   0.00000  Uiso   1.00
V8     V     0.64890   0.50000   0.00000   0.00000  Uiso   1.00
V9     V     0.85110   0.35110   0.00000   0.00000  Uiso   1.00
V10    V     0.50000   0.85110   0.00000   0.00000  Uiso   1.00
V11    V     0.35110   0.50000   0.00000   0.00000  Uiso   1.00
V12    V     0.14890   0.64890   0.00000   0.00000  Uiso   1.00
Er13   Er    0.00000   0.50000   0.50000   0.00000  Uiso   1.00
Er14   Er    0.50000   0.50000   0.50000   0.00000  Uiso   1.00
Er15   Er    0.50000   0.00000   0.50000   0.00000  Uiso   1.00
loop_
_geom_bond_atom_site_label_1
_geom_bond_atom_site_label_2
_geom_bond_distance
_geom_bond_site_symmetry_2
_ccdc_geom_bond_type
V1     Er13    9.998   .     S
V1     V11    10.010   .     S
V1     Er13    9.998   1_554 S
V2     Er14    9.998   .     S
V2     V10    10.010   .     S
V2     Er14    9.998   1_554 S
V3     V12    10.010   .     S
V3     Er15    9.998   1_565 S
V3     Er15    9.998   1_564 S
V4     V8     10.010   .     S
V4     Er13    9.998   1_655 S
V4     Er13    9.998   1_654 S
V5     Er14    9.998   .     S
V5     V7     10.010   .     S
V5     Er14    9.998   1_554 S
V6     Er15    9.998   .     S
V6     V9     10.010   .     S
V6     Er15    9.998   1_554 S
V7     Er15    9.998   1_554 S
V8     Er14    9.998   1_554 S
V9     Er13    9.998   1_654 S
V9     Er13    9.998   1_655 S
V10    Er15    9.998   1_564 S
V10    Er15    9.998   1_565 S
V11    Er14    9.998   1_554 S
V12    Er13    9.998   1_554 S
Er13   V1      9.998   1_556 S
Er13   V4      9.998   1_455 S
Er13   V4      9.998   1_456 S
Er13   V9      9.998   1_456 S
Er13   V9      9.998   1_455 S
Er13   V12     9.998   1_556 S
Er14   V2      9.998   1_556 S
Er14   V5      9.998   1_556 S
Er14   V8      9.998   1_556 S
Er14   V11     9.998   1_556 S
Er15   V3      9.998   1_545 S
Er15   V3      9.998   1_546 S
Er15   V6      9.998   1_556 S
Er15   V7      9.998   1_556 S
Er15   V10     9.998   1_546 S
Er15   V10     9.998   1_545 S
V7     Er15    9.998   .     S
V12    Er13    9.998   .     S
V8     Er14    9.998   .     S
V11    Er14    9.998   .     S