data_zxc
_audit_creation_date              2019-09-11
_audit_creation_method            'Materials Studio'
_symmetry_space_group_name_H-M    'P1'
_symmetry_Int_Tables_number       1
_symmetry_cell_setting            triclinic
loop_
_symmetry_equiv_pos_as_xyz
  x,y,z
_cell_length_a                    25.0000
_cell_length_b                    25.0000
_cell_length_c                    77.4620
_cell_angle_alpha                 90.0000
_cell_angle_beta                  90.0000
_cell_angle_gamma                 120.0000
loop_
_atom_site_label
_atom_site_type_symbol
_atom_site_fract_x
_atom_site_fract_y
_atom_site_fract_z
_atom_site_U_iso_or_equiv
_atom_site_adp_type
_atom_site_occupancy
V1     V     0.00000   0.40000   0.25000   0.00000  Uiso   1.00
V2     V     0.66667   0.73333   0.58333   0.00000  Uiso   1.00
V3     V     0.33333   0.06667   0.91667   0.00000  Uiso   1.00
V4     V     0.60000   0.60000   0.25000   0.00000  Uiso   1.00
V5     V     0.26667   0.93333   0.58333   0.00000  Uiso   1.00
V6     V     0.93333   0.26667   0.91667   0.00000  Uiso   1.00
V7     V     0.40000   0.00000   0.25000   0.00000  Uiso   1.00
V8     V     0.06667   0.33333   0.58333   0.00000  Uiso   1.00
V9     V     0.73333   0.66667   0.91667   0.00000  Uiso   1.00
V10    V     0.00000   0.60000   0.75000   0.00000  Uiso   1.00
V11    V     0.66667   0.93333   0.08333   0.00000  Uiso   1.00
V12    V     0.33333   0.26667   0.41667   0.00000  Uiso   1.00
V13    V     0.40000   0.40000   0.75000   0.00000  Uiso   1.00
V14    V     0.06667   0.73333   0.08333   0.00000  Uiso   1.00
V15    V     0.73333   0.06667   0.41667   0.00000  Uiso   1.00
V16    V     0.60000   0.00000   0.75000   0.00000  Uiso   1.00
V17    V     0.26667   0.33333   0.08333   0.00000  Uiso   1.00
V18    V     0.93333   0.66667   0.41667   0.00000  Uiso   1.00
Er19   Er    0.00000   0.00000   0.25000   0.00000  Uiso   1.00
Er20   Er    0.66667   0.33333   0.58333   0.00000  Uiso   1.00
Er21   Er    0.33333   0.66667   0.91667   0.00000  Uiso   1.00
Er22   Er    0.00000   0.00000   0.75000   0.00000  Uiso   1.00
Er23   Er    0.66667   0.33333   0.08333   0.00000  Uiso   1.00
Er24   Er    0.33333   0.66667   0.41667   0.00000  Uiso   1.00
Ti25   Ti    0.00000   0.00000   0.00000   0.00000  Uiso   1.00
Ti26   Ti    0.66667   0.33333   0.33333   0.00000  Uiso   1.00
Ti27   Ti    0.33333   0.66667   0.66667   0.00000  Uiso   1.00
Ti28   Ti    0.00000   0.00000   0.50000   0.00000  Uiso   1.00
Ti29   Ti    0.66667   0.33333   0.83333   0.00000  Uiso   1.00
Ti30   Ti    0.33333   0.66667   0.16667   0.00000  Uiso   1.00
loop_
_geom_bond_atom_site_label_1
_geom_bond_atom_site_label_2
_geom_bond_distance
_geom_bond_site_symmetry_2
_ccdc_geom_bond_type
V1     Ti26   10.000   1_455 S
V1     Ti30   10.000   .     S
V1     Er19   10.000   .     S
V2     Ti27   10.000   .     S
V2     Ti28   10.000   1_665 S
V2     Er20   10.000   .     S
V3     Ti25   10.000   1_556 S
V3     Ti29   10.000   .     S
V3     Er21   10.000   1_545 S
V4     Ti26   10.000   .     S
V4     Ti30   10.000   .     S
V4     Er19   10.000   1_665 S
V5     Ti27   10.000   .     S
V5     Ti28   10.000   1_565 S
V5     Er20   10.000   1_565 S
V6     Ti25   10.000   1_656 S
V6     Ti29   10.000   .     S
V6     Er21   10.000   1_655 S
V7     Ti26   10.000   .     S
V7     Ti30   10.000   1_545 S
V7     Er19   10.000   .     S
V8     Ti27   10.000   .     S
V8     Ti28   10.000   .     S
V8     Er20   10.000   1_455 S
V9     Ti25   10.000   1_666 S
V9     Ti29   10.000   .     S
V9     Er21   10.000   .     S
V10    Ti27   10.000   .     S
V10    Ti29   10.000   1_455 S
V10    Er22   10.000   1_565 S
V11    Ti25   10.000   1_665 S
V11    Ti30   10.000   .     S
V11    Er23   10.000   1_565 S
V12    Ti26   10.000   .     S
V12    Ti28   10.000   .     S
V12    Er24   10.000   .     S
V13    Ti27   10.000   .     S
V13    Ti29   10.000   .     S
V13    Er22   10.000   .     S
V14    Ti25   10.000   1_565 S
V14    Ti30   10.000   .     S
V14    Er23   10.000   1_455 S
V15    Ti26   10.000   .     S
V15    Ti28   10.000   1_655 S
V15    Er24   10.000   1_545 S
V16    Ti27   10.000   1_545 S
V16    Ti29   10.000   .     S
V16    Er22   10.000   1_655 S
V17    Ti25   10.000   .     S
V17    Ti30   10.000   .     S
V17    Er23   10.000   .     S
V18    Ti26   10.000   .     S
V18    Ti28   10.000   1_665 S
V18    Er24   10.000   1_655 S
Er19   V4     10.000   1_445 S
Er20   V5     10.000   1_545 S
Er20   V8     10.000   1_655 S
Er21   V3     10.000   1_565 S
Er21   V6     10.000   1_455 S
Er22   V10    10.000   1_545 S
Er22   V16    10.000   1_455 S
Er23   V11    10.000   1_545 S
Er23   V14    10.000   1_655 S
Er24   V15    10.000   1_565 S
Er24   V18    10.000   1_455 S
Ti25   V14    10.000   1_545 S
Ti25   V11    10.000   1_445 S
Ti25   V6     10.000   1_454 S
Ti25   V9     10.000   1_444 S
Ti25   V3     10.000   1_554 S
Ti26   V1     10.000   1_655 S
Ti27   V16    10.000   1_565 S
Ti28   V15    10.000   1_455 S
Ti28   V18    10.000   1_445 S
Ti28   V5     10.000   1_545 S
Ti28   V2     10.000   1_445 S
Ti29   V10    10.000   1_655 S
Ti30   V7     10.000   1_565 S
