data_zyg
_audit_creation_date              2019-09-11
_audit_creation_method            'Materials Studio'
_symmetry_space_group_name_H-M    'P1'
_symmetry_Int_Tables_number       1
_symmetry_cell_setting            triclinic
loop_
_symmetry_equiv_pos_as_xyz
  x,y,z
_cell_length_a                    42.8480
_cell_length_b                    42.8480
_cell_length_c                    27.0410
_cell_angle_alpha                 90.0000
_cell_angle_beta                  90.0000
_cell_angle_gamma                 120.0000
loop_
_atom_site_label
_atom_site_type_symbol
_atom_site_fract_x
_atom_site_fract_y
_atom_site_fract_z
_atom_site_U_iso_or_equiv
_atom_site_adp_type
_atom_site_occupancy
V1     V     0.33333   0.66667   0.00000   0.00000  Uiso   1.00
V2     V     0.66667   0.33333   0.50000   0.00000  Uiso   1.00
V3     V     0.66667   0.33333   0.00000   0.00000  Uiso   1.00
V4     V     0.33333   0.66667   0.50000   0.00000  Uiso   1.00
Er5    Er    0.19860   0.39720   0.00000   0.00000  Uiso   1.00
Er6    Er    0.60280   0.80140   0.00000   0.00000  Uiso   1.00
Er7    Er    0.19860   0.80140   0.00000   0.00000  Uiso   1.00
Er8    Er    0.80140   0.60280   0.50000   0.00000  Uiso   1.00
Er9    Er    0.39720   0.19860   0.50000   0.00000  Uiso   1.00
Er10   Er    0.80140   0.19860   0.50000   0.00000  Uiso   1.00
Er11   Er    0.80140   0.60280   0.00000   0.00000  Uiso   1.00
Er12   Er    0.39720   0.19860   0.00000   0.00000  Uiso   1.00
Er13   Er    0.80140   0.19860   0.00000   0.00000  Uiso   1.00
Er14   Er    0.19860   0.39720   0.50000   0.00000  Uiso   1.00
Er15   Er    0.60280   0.80140   0.50000   0.00000  Uiso   1.00
Er16   Er    0.19860   0.80140   0.50000   0.00000  Uiso   1.00
Ti17   Ti    0.00000   0.29790   0.25000   0.00000  Uiso   1.00
Ti18   Ti    0.70210   0.70210   0.25000   0.00000  Uiso   1.00
Ti19   Ti    0.29790   0.00000   0.25000   0.00000  Uiso   1.00
Ti20   Ti    0.00000   0.70210   0.75000   0.00000  Uiso   1.00
Ti21   Ti    0.29790   0.29790   0.75000   0.00000  Uiso   1.00
Ti22   Ti    0.70210   0.00000   0.75000   0.00000  Uiso   1.00
loop_
_geom_bond_atom_site_label_1
_geom_bond_atom_site_label_2
_geom_bond_distance
_geom_bond_site_symmetry_2
_ccdc_geom_bond_type
V1     Er5     9.999   .     S
V1     Er6     9.999   .     S
V1     Er7     9.999   .     S
V2     Er8     9.999   .     S
V2     Er9     9.999   .     S
V2     Er10    9.999   .     S
V3     Er11    9.999   .     S
V3     Er12    9.999   .     S
V3     Er13    9.999   .     S
V4     Er14    9.999   .     S
V4     Er15    9.999   .     S
V4     Er16    9.999   .     S
Er5    Ti21   10.001   1_554 S
Er5    Ti17   10.001   .     S
Er6    Ti22   10.001   1_564 S
Er6    Ti18   10.001   .     S
Er7    Ti20   10.001   1_554 S
Er7    Ti19   10.001   1_565 S
Er8    Ti18   10.001   .     S
Er8    Ti20   10.001   1_655 S
Er9    Ti19   10.001   .     S
Er9    Ti21   10.001   .     S
Er10   Ti17   10.001   1_655 S
Er10   Ti22   10.001   .     S
Er11   Ti18   10.001   .     S
Er11   Ti20   10.001   1_654 S
Er12   Ti19   10.001   .     S
Er12   Ti21   10.001   1_554 S
Er13   Ti17   10.001   1_655 S
Er13   Ti22   10.001   1_554 S
Er14   Ti21   10.001   .     S
Er14   Ti17   10.001   .     S
Er15   Ti22   10.001   1_565 S
Er15   Ti18   10.001   .     S
Er16   Ti20   10.001   .     S
Er16   Ti19   10.001   1_565 S
Ti17   Er10   10.001   1_455 S
Ti17   Er13   10.001   1_455 S
Ti19   Er7    10.001   1_545 S
Ti19   Er16   10.001   1_545 S
Ti20   Er7    10.001   1_556 S
Ti20   Er8    10.001   1_455 S
Ti20   Er11   10.001   1_456 S
Ti21   Er5    10.001   1_556 S
Ti21   Er12   10.001   1_556 S
Ti22   Er6    10.001   1_546 S
Ti22   Er15   10.001   1_545 S
Ti22   Er13   10.001   1_556 S
