data_4c_1anC_Ch
_audit_creation_date              2019-09-04
_audit_creation_method            'tobacco_3.0'
_symmetry_space_group_name_H-M    'P1'
_symmetry_Int_Tables_number       1
_symmetry_cell_setting            triclinic
loop_
_symmetry_equiv_pos_as_xyz
  x,y,z
_cell_length_a                    10.0000
_cell_length_b                    10.0000
_cell_length_c                    10.0000
_cell_angle_alpha                 90.0000
_cell_angle_beta                  90.0000
_cell_angle_gamma                 90.0000
loop_
_atom_site_label
_atom_site_type_symbol
_atom_site_fract_x
_atom_site_fract_y
_atom_site_fract_z
_atom_site_U_iso_or_equiv
_atom_site_adp_type
_atom_site_occupancy
C1         C    0.2767900000    0.1582100000    0.3014100000   0.00000  Uiso   1.00                
X2        Fr    0.2387900000    0.0543900000    0.3292200000   0.00000  Uiso   1.00                
X3        Fr    0.2387900000    0.1860300000    0.1975900000   0.00000  Uiso   1.00                
X4        Fr    0.2387900000    0.2342100000    0.3774100000   0.00000  Uiso   1.00                
X5        Fr    0.3907900000    0.1582100000    0.3014100000   0.00000  Uiso   1.00                
loop_
_geom_bond_atom_site_label_1
_geom_bond_atom_site_label_2
_geom_bond_distance
_geom_bond_site_symmetry_2
_ccdc_geom_bond_type
C1           X2 1.140       .   S
C1           X3 1.140       .   S
C1           X4 1.140       .   S
C1           X5 1.140       .   S
