data_6c_Zn_1_Ch
_audit_creation_date              2019-09-04
_audit_creation_method            'tobacco_3.0'
_symmetry_space_group_name_H-M    'P1'
_symmetry_Int_Tables_number       1
_symmetry_cell_setting            triclinic
loop_
_symmetry_equiv_pos_as_xyz
  x,y,z
_cell_length_a                    20.0000
_cell_length_b                    20.0000
_cell_length_c                    20.0000
_cell_angle_alpha                 90.0000
_cell_angle_beta                  90.0000
_cell_angle_gamma                 90.0000
loop_
_atom_site_label
_atom_site_type_symbol
_atom_site_fract_x
_atom_site_fract_y
_atom_site_fract_z
_atom_site_U_iso_or_equiv
_atom_site_adp_type
_atom_site_occupancy
Zn1       Zn    0.0560600000    0.0560600000    0.0560600000   0.00000  Uiso   1.00                
Zn2       Zn   -0.0560600000   -0.0560600000    0.0560600000   0.00000  Uiso   1.00                
Zn3       Zn   -0.0560600000    0.0560600000   -0.0560600000   0.00000  Uiso   1.00                
Zn4       Zn    0.0560600000   -0.0560600000   -0.0560600000   0.00000  Uiso   1.00                
O5         O    0.0000000000    0.0000000000    0.0000000000   0.00000  Uiso   1.00                
O6         O    0.0412000000    0.0412000000    0.1498300000   0.00000  Uiso   1.00                
O7         O   -0.1498300000   -0.0412000000    0.0412000000   0.00000  Uiso   1.00                
O8         O   -0.0412000000    0.1498300000   -0.0412000000   0.00000  Uiso   1.00                
O9         O   -0.0412000000   -0.0412000000    0.1498300000   0.00000  Uiso   1.00                
O10        O    0.0412000000    0.1498300000    0.0412000000   0.00000  Uiso   1.00                
O11        O   -0.1498300000    0.0412000000   -0.0412000000   0.00000  Uiso   1.00                
O12        O    0.0412000000   -0.0412000000   -0.1498300000   0.00000  Uiso   1.00                
O13        O   -0.0412000000   -0.1498300000    0.0412000000   0.00000  Uiso   1.00                
O14        O   -0.0412000000    0.0412000000   -0.1498300000   0.00000  Uiso   1.00                
O15        O    0.0412000000   -0.1498300000   -0.0412000000   0.00000  Uiso   1.00                
O16        O    0.1498300000   -0.0412000000   -0.0412000000   0.00000  Uiso   1.00                
O17        O    0.1498300000    0.0412000000    0.0412000000   0.00000  Uiso   1.00                
X18        C    0.0000000000    0.0000000000    0.1791400000   0.00000  Uiso   1.00                
X19        C   -0.1791400000    0.0000000000    0.0000000000   0.00000  Uiso   1.00                
X20        C    0.0000000000    0.1791400000    0.0000000000   0.00000  Uiso   1.00                
X21        C    0.0000000000    0.0000000000   -0.1791400000   0.00000  Uiso   1.00                
X22        C    0.0000000000   -0.1791400000    0.0000000000   0.00000  Uiso   1.00                
X23        C    0.1791400000    0.0000000000    0.0000000000   0.00000  Uiso   1.00                
loop_
_geom_bond_atom_site_label_1
_geom_bond_atom_site_label_2
_geom_bond_distance
_geom_bond_site_symmetry_2
_ccdc_geom_bond_type
Zn1          O5 1.942       .   S
Zn1          O6 1.922       .   S
Zn1         O10 1.922       .   S
Zn1         O17 1.922       .   S
Zn2          O5 1.942       .   S
Zn2          O7 1.922       .   S
Zn2          O9 1.922       .   S
Zn2         O13 1.922       .   S
Zn3          O5 1.942       .   S
Zn3          O8 1.922       .   S
Zn3         O11 1.922       .   S
Zn3         O14 1.922       .   S
Zn4          O5 1.942       .   S
Zn4         O12 1.922       .   S
Zn4         O15 1.922       .   S
Zn4         O16 1.922       .   S
O6          X18 1.304       .   A
O7          X19 1.304       .   A
O8          X20 1.304       .   A
O9          X18 1.304       .   A
O10         X20 1.304       .   A
O11         X19 1.304       .   A
O12         X21 1.304       .   A
O13         X22 1.304       .   A
O14         X21 1.304       .   A
O15         X22 1.304       .   A
O16         X23 1.304       .   A
O17         X23 1.304       .   A
