data_6c_Zr_1_Ch
_audit_creation_date              2019-09-04
_audit_creation_method            'tobacco_3.0'
_symmetry_space_group_name_H-M    'P1'
_symmetry_Int_Tables_number       1
_symmetry_cell_setting            triclinic
loop_
_symmetry_equiv_pos_as_xyz
  x,y,z
_cell_length_a                    20.0000
_cell_length_b                    20.0000
_cell_length_c                    20.0000
_cell_angle_alpha                 90.0000
_cell_angle_beta                  90.0000
_cell_angle_gamma                 90.0000
loop_
_atom_site_label
_atom_site_type_symbol
_atom_site_fract_x
_atom_site_fract_y
_atom_site_fract_z
_atom_site_U_iso_or_equiv
_atom_site_adp_type
_atom_site_occupancy
Zr1       Zr   -0.0717700000   -0.0506800000   -0.0876300000   0.00000  Uiso   1.00                
O2         O   -0.1580200000   -0.0171900000   -0.1391800000   0.00000  Uiso   1.00                
O3         O   -0.0494700000   -0.1553600000   -0.1194800000   0.00000  Uiso   1.00                
O4         O   -0.0411500000   -0.0378900000   -0.1942400000   0.00000  Uiso   1.00                
O5         O   -0.1660000000   -0.1014100000    0.0549500000   0.00000  Uiso   1.00                
O6         O    0.0519000000    0.0208400000   -0.1942500000   0.00000  Uiso   1.00                
O7         O   -0.1629600000   -0.1062400000   -0.0549400000   0.00000  Uiso   1.00                
O8         O    0.0370000000   -0.1892900000   -0.0605100000   0.00000  Uiso   1.00                
O9         O    0.0332200000   -0.0526300000   -0.0790000000   0.00000  Uiso   1.00                
O10        O   -0.0384900000   -0.0928700000    0.0030100000   0.00000  Uiso   1.00                
O11        O   -0.0286800000    0.0454300000   -0.0850200000   0.00000  Uiso   1.00                
O12        O   -0.1003900000    0.0052000000   -0.0030100000   0.00000  Uiso   1.00                
Zr13      Zr    0.0717700000    0.0506800000    0.0876200000   0.00000  Uiso   1.00                
Zr14      Zr    0.0766200000    0.0429900000   -0.0876300000   0.00000  Uiso   1.00                
Zr15      Zr   -0.0766200000   -0.0429900000    0.0876300000   0.00000  Uiso   1.00                
Zr16      Zr    0.0661500000   -0.1047900000    0.0064300000   0.00000  Uiso   1.00                
O17        O   -0.1616100000    0.0064600000    0.1258500000   0.00000  Uiso   1.00                
O18        O    0.1529900000   -0.1275200000   -0.0501000000   0.00000  Uiso   1.00                
O19        O    0.0286800000   -0.0454400000    0.0850200000   0.00000  Uiso   1.00                
O20        O    0.1003900000   -0.0052000000    0.0030100000   0.00000  Uiso   1.00                
O21        O    0.0384900000    0.0928700000   -0.0030100000   0.00000  Uiso   1.00                
O22        O   -0.0332200000    0.0526300000    0.0790000000   0.00000  Uiso   1.00                
X23        C   -0.0070400000   -0.1944800000   -0.1015600000   0.00000  Uiso   1.00                
X24        C   -0.1856200000   -0.1171700000    0.0000100000   0.00000  Uiso   1.00                
X25        C    0.0060700000   -0.0096200000   -0.2192200000   0.00000  Uiso   1.00                
O26        O    0.1641100000   -0.0031800000   -0.1251400000   0.00000  Uiso   1.00                
O27        O    0.1660000000    0.1014100000   -0.0549500000   0.00000  Uiso   1.00                
O28        O    0.1629600000    0.1062400000    0.0549400000   0.00000  Uiso   1.00                
X29        C    0.1856200000    0.1171700000    0.0000000000   0.00000  Uiso   1.00                
O30        O   -0.1491800000    0.1132600000   -0.0719500000   0.00000  Uiso   1.00                
Zr31      Zr   -0.0661500000    0.1047900000   -0.0064300000   0.00000  Uiso   1.00                
O32        O    0.0494700000    0.1553600000    0.1194800000   0.00000  Uiso   1.00                
O33        O    0.0759500000    0.1377700000   -0.1350500000   0.00000  Uiso   1.00                
O34        O   -0.0397400000    0.1855500000   -0.0694600000   0.00000  Uiso   1.00                
O35        O   -0.1547000000    0.1319100000    0.0457700000   0.00000  Uiso   1.00                
O36        O   -0.0370000000    0.1892900000    0.0605100000   0.00000  Uiso   1.00                
X37        C    0.0070400000    0.1944800000    0.1015600000   0.00000  Uiso   1.00                
O38        O    0.1532600000    0.0155900000    0.1458200000   0.00000  Uiso   1.00                
O39        O   -0.0704800000   -0.1333300000    0.1427700000   0.00000  Uiso   1.00                
O40        O    0.0411500000    0.0378900000    0.1942400000   0.00000  Uiso   1.00                
O41        O   -0.0519000000   -0.0208400000    0.1942500000   0.00000  Uiso   1.00                
O42        O    0.0439000000   -0.1869600000    0.0691400000   0.00000  Uiso   1.00                
O43        O    0.1415400000   -0.1244700000    0.0783200000   0.00000  Uiso   1.00                
X44        C   -0.0060700000    0.0096200000    0.2192200000   0.00000  Uiso   1.00                
H45        H   -0.0564400000   -0.1386400000    0.0062900000   0.00000  Uiso   1.00                
H46        H    0.1495500000   -0.0095800000    0.0045600000   0.00000  Uiso   1.00                
H47        H   -0.0514000000    0.0781400000    0.1170400000   0.00000  Uiso   1.00                
H48        H   -0.0436900000    0.0686100000   -0.1259500000   0.00000  Uiso   1.00                
H49        H    0.1656200000   -0.1736500000   -0.0371800000   0.00000  Uiso   1.00                
H50        H    0.1138100000    0.1366200000   -0.1669700000   0.00000  Uiso   1.00                
H51        H   -0.0663200000    0.2245200000   -0.0543800000   0.00000  Uiso   1.00                
H52        H    0.0715200000   -0.2248800000    0.0531100000   0.00000  Uiso   1.00                
H53        H   -0.1101200000   -0.1333000000    0.1724700000   0.00000  Uiso   1.00                
H54        H   -0.1795000000   -0.0234100000    0.1610700000   0.00000  Uiso   1.00                
H55        H   -0.1616700000    0.1801600000    0.0368900000   0.00000  Uiso   1.00                
H56        H    0.1827200000   -0.1011200000    0.0640100000   0.00000  Uiso   1.00                
H57        H    0.1394700000   -0.0284700000    0.1636600000   0.00000  Uiso   1.00                
H58        H   -0.1671900000   -0.0516400000   -0.1735800000   0.00000  Uiso   1.00                
H59        H   -0.1593400000    0.1612700000   -0.0784600000   0.00000  Uiso   1.00                
H60        H   -0.0790800000   -0.1704900000    0.1113100000   0.00000  Uiso   1.00                
H61        H    0.1899900000    0.0047800000    0.1145200000   0.00000  Uiso   1.00                
H62        H    0.1498800000   -0.0367200000   -0.1585600000   0.00000  Uiso   1.00                
H63        H    0.1382800000   -0.1319300000   -0.0971000000   0.00000  Uiso   1.00                
H64        H   -0.1447500000    0.1302500000    0.0941300000   0.00000  Uiso   1.00                
H65        H    0.0358900000    0.1395200000   -0.1639900000   0.00000  Uiso   1.00                
H66        H   -0.1447700000    0.0229400000   -0.1648800000   0.00000  Uiso   1.00                
loop_
_geom_bond_atom_site_label_1
_geom_bond_atom_site_label_2
_geom_bond_distance
_geom_bond_site_symmetry_2
_ccdc_geom_bond_type
Zr1          O2 2.118       .   S
Zr1          O3 2.233       .   S
Zr1          O4 2.233       .   S
Zr1          O7 2.233       .   S
Zr1          O9 2.107       .   S
Zr1         O10 2.107       .   S
Zr1         O11 2.107       .   S
Zr1         O12 2.107       .   S
O2          H58 0.991       .   S
O2          H66 0.989       .   S
O3          X23 1.209       .   D
O4          X25 1.209       .   D
O5         Zr15 2.233       .   S
O5          X24 1.209       .   D
O6         Zr14 2.233       .   S
O6          X25 1.209       .   S
O7          X24 1.209       .   S
O8         Zr16 2.233       .   S
O8          X23 1.209       .   S
O9         Zr14 2.107       .   S
O9         Zr16 2.107       .   S
O10        Zr15 2.107       .   S
O10        Zr16 2.107       .   S
O10         H45 0.985       .   S
O11        Zr14 2.107       .   S
O11        Zr31 2.108       .   S
O11         H48 0.988       .   S
O12        Zr15 2.107       .   S
O12        Zr31 2.107       .   S
Zr13        O32 2.233       .   S
Zr13        O38 2.122       .   S
Zr13        O40 2.233       .   S
Zr13        O28 2.233       .   S
Zr13        O19 2.107       .   S
Zr13        O20 2.107       .   S
Zr13        O21 2.107       .   S
Zr13        O22 2.107       .   S
Zr14        O33 2.120       .   S
Zr14        O26 2.116       .   S
Zr14        O27 2.233       .   S
Zr14        O20 2.107       .   S
Zr14        O21 2.107       .   S
Zr15        O17 2.110       .   S
Zr15        O39 2.120       .   S
Zr15        O41 2.233       .   S
Zr15        O19 2.107       .   S
Zr15        O22 2.107       .   S
Zr16        O42 2.115       .   S
Zr16        O43 2.120       .   S
Zr16        O18 2.122       .   S
Zr16        O19 2.107       .   S
Zr16        O20 2.107       .   S
O17         H54 0.990       .   S
O18         H49 0.991       .   S
O18         H63 0.989       .   S
O20         H46 0.988       .   S
O21        Zr31 2.107       .   S
O22        Zr31 2.107       .   S
O22         H47 0.986       .   S
O26         H62 0.989       .   S
O27         X29 1.209       .   D
O28         X29 1.209       .   S
O30        Zr31 2.122       .   S
O30         H59 0.990       .   S
Zr31        O34 2.116       .   S
Zr31        O35 2.126       .   S
Zr31        O36 2.233       .   S
O32         X37 1.209       .   S
O33         H50 0.991       .   S
O33         H65 0.989       .   S
O34         H51 0.991       .   S
O35         H55 0.991       .   S
O35         H64 0.988       .   S
O36         X37 1.209       .   D
O38         H57 0.990       .   S
O38         H61 0.989       .   S
O39         H53 0.991       .   S
O39         H60 0.989       .   S
O40         X44 1.209       .   S
O41         X44 1.209       .   D
O42         H52 0.991       .   S
O43         H56 0.989       .   S
