data_8c_Zr_1_Ch
_audit_creation_date              2019-09-04
_audit_creation_method            'tobacco_3.0'
_symmetry_space_group_name_H-M    'P1'
_symmetry_Int_Tables_number       1
_symmetry_cell_setting            triclinic
loop_
_symmetry_equiv_pos_as_xyz
  x,y,z
_cell_length_a                    20.0000
_cell_length_b                    20.0000
_cell_length_c                    20.0000
_cell_angle_alpha                 90.0000
_cell_angle_beta                  90.0000
_cell_angle_gamma                 90.0000
loop_
_atom_site_label
_atom_site_type_symbol
_atom_site_fract_x
_atom_site_fract_y
_atom_site_fract_z
_atom_site_U_iso_or_equiv
_atom_site_adp_type
_atom_site_occupancy
O1         O    0.0899600000   -0.1300100000   -0.1189100000   0.00000  Uiso   1.00                
O2         O    0.1719200000   -0.0586900000   -0.0527700000   0.00000  Uiso   1.00                
X3         C    0.1548400000   -0.1049800000   -0.1038100000   0.00000  Uiso   1.00                
O4         O   -0.0899700000    0.1182700000   -0.1306000000   0.00000  Uiso   1.00                
O5         O   -0.1719200000    0.0534700000   -0.0580500000   0.00000  Uiso   1.00                
X6         C   -0.1548500000    0.0947700000   -0.1132100000   0.00000  Uiso   1.00                
O7         O    0.0899600000    0.1182700000   -0.1306000000   0.00000  Uiso   1.00                
O8         O    0.1719200000    0.0534700000   -0.0580500000   0.00000  Uiso   1.00                
X9         C    0.1548400000    0.0947700000   -0.1132100000   0.00000  Uiso   1.00                
O10        O   -0.0899700000   -0.1300100000   -0.1189100000   0.00000  Uiso   1.00                
O11        O   -0.1719200000   -0.0586900000   -0.0527700000   0.00000  Uiso   1.00                
X12        C   -0.1548500000   -0.1049800000   -0.1038100000   0.00000  Uiso   1.00                
Zr13      Zr    0.0000000000   -0.0872100000   -0.0791500000   0.00000  Uiso   1.00                
O14        O    0.0000000000   -0.0853600000   -0.1843500000   0.00000  Uiso   1.00                
O15        O   -0.0086300000   -0.1933000000   -0.0718800000   0.00000  Uiso   1.00                
Zr16      Zr    0.0000000000    0.0793900000   -0.0869900000   0.00000  Uiso   1.00                
O17        O    0.0096100000    0.0741500000   -0.1931300000   0.00000  Uiso   1.00                
O18        O   -0.0111700000    0.1848800000   -0.0833200000   0.00000  Uiso   1.00                
O19        O    0.0607600000   -0.0045500000   -0.0966800000   0.00000  Uiso   1.00                
O20        O   -0.0607600000   -0.0045500000   -0.0966800000   0.00000  Uiso   1.00                
O21        O   -0.0899700000   -0.1182700000    0.1306000000   0.00000  Uiso   1.00                
O22        O   -0.1719200000   -0.0534700000    0.0580500000   0.00000  Uiso   1.00                
X23        C   -0.1548500000   -0.0947700000    0.1132100000   0.00000  Uiso   1.00                
O24        O    0.0899600000    0.1300100000    0.1189100000   0.00000  Uiso   1.00                
O25        O    0.1719200000    0.0586900000    0.0527700000   0.00000  Uiso   1.00                
X26        C    0.1548400000    0.1049800000    0.1038100000   0.00000  Uiso   1.00                
O27        O   -0.0899700000    0.1300100000    0.1189100000   0.00000  Uiso   1.00                
O28        O   -0.1719200000    0.0586900000    0.0527700000   0.00000  Uiso   1.00                
X29        C   -0.1548500000    0.1049800000    0.1038100000   0.00000  Uiso   1.00                
O30        O    0.0899600000   -0.1182700000    0.1306000000   0.00000  Uiso   1.00                
O31        O    0.1719200000   -0.0534700000    0.0580500000   0.00000  Uiso   1.00                
X32        C    0.1548400000   -0.0947700000    0.1132100000   0.00000  Uiso   1.00                
Zr33      Zr    0.0000000000   -0.0793900000    0.0869900000   0.00000  Uiso   1.00                
O34        O    0.0088900000   -0.0727400000    0.1931700000   0.00000  Uiso   1.00                
O35        O    0.0020700000   -0.1854200000    0.0853900000   0.00000  Uiso   1.00                
Zr36      Zr    0.0000000000    0.0872100000    0.0791500000   0.00000  Uiso   1.00                
O37        O   -0.0027800000    0.0907300000    0.1850000000   0.00000  Uiso   1.00                
O38        O    0.0035800000    0.1927700000    0.0650500000   0.00000  Uiso   1.00                
Zr39      Zr    0.0997600000    0.0000000000    0.0000000000   0.00000  Uiso   1.00                
Zr40      Zr   -0.0997700000    0.0000000000    0.0000000000   0.00000  Uiso   1.00                
O41        O   -0.0607600000    0.0045500000    0.0966800000   0.00000  Uiso   1.00                
O42        O    0.0607600000    0.0045500000    0.0966800000   0.00000  Uiso   1.00                
O43        O   -0.0612900000   -0.0969100000    0.0045600000   0.00000  Uiso   1.00                
O44        O    0.0612900000    0.0969100000   -0.0045600000   0.00000  Uiso   1.00                
O45        O    0.0612900000   -0.0969100000    0.0045600000   0.00000  Uiso   1.00                
O46        O   -0.0612900000    0.0969100000   -0.0045600000   0.00000  Uiso   1.00                
H47        H   -0.0900700000   -0.0067600000   -0.1437400000   0.00000  Uiso   1.00                
H48        H    0.0916500000    0.1432200000   -0.0067400000   0.00000  Uiso   1.00                
H49        H   -0.0900700000    0.0067600000    0.1437400000   0.00000  Uiso   1.00                
H50        H    0.0916500000   -0.1432200000    0.0067400000   0.00000  Uiso   1.00                
H51        H    0.0328400000    0.2061200000   -0.0758500000   0.00000  Uiso   1.00                
H52        H   -0.0375700000    0.2069400000    0.0414600000   0.00000  Uiso   1.00                
H53        H    0.0313100000    0.0591900000    0.2021000000   0.00000  Uiso   1.00                
H54        H   -0.0280300000   -0.0456200000    0.2115000000   0.00000  Uiso   1.00                
H55        H   -0.0366100000   -0.2015700000    0.0590600000   0.00000  Uiso   1.00                
H56        H    0.0289700000   -0.2112800000   -0.0454800000   0.00000  Uiso   1.00                
H57        H    0.0371900000   -0.0568700000   -0.2003400000   0.00000  Uiso   1.00                
H58        H   -0.0267100000    0.0462600000   -0.2115300000   0.00000  Uiso   1.00                
H59        H    0.0007500000   -0.1180600000    0.2116600000   0.00000  Uiso   1.00                
H60        H   -0.0011800000   -0.2118200000   -0.1173000000   0.00000  Uiso   1.00                
H61        H    0.0004200000    0.1194200000   -0.2112600000   0.00000  Uiso   1.00                
H62        H   -0.0000800000    0.2136100000    0.1098900000   0.00000  Uiso   1.00                
loop_
_geom_bond_atom_site_label_1
_geom_bond_atom_site_label_2
_geom_bond_distance
_geom_bond_site_symmetry_2
_ccdc_geom_bond_type
O1         Zr13 2.145       .   S
O1           X3 1.423       .   A
O2         Zr39 2.139       .   S
O2           X3 1.420       .   A
O4         Zr16 2.146       .   S
O4           X6 1.423       .   A
O5         Zr40 2.139       .   S
O5           X6 1.420       .   A
O7         Zr16 2.145       .   S
O7           X9 1.423       .   A
O8         Zr39 2.139       .   S
O8           X9 1.420       .   A
O10        Zr13 2.145       .   S
O10         X12 1.423       .   A
O11        Zr40 2.139       .   S
O11         X12 1.420       .   A
Zr13        O14 2.104       .   S
Zr13        O15 2.134       .   S
Zr13        O19 2.082       .   S
Zr13        O20 2.082       .   S
Zr13        O43 2.084       .   S
Zr13        O45 2.084       .   S
O14         H57 0.990       .   S
O15         H56 0.987       .   S
O15         H60 0.992       .   S
Zr16        O17 2.134       .   S
Zr16        O18 2.123       .   S
Zr16        O20 2.081       .   S
Zr16        O19 2.081       .   S
Zr16        O44 2.084       .   S
Zr16        O46 2.084       .   S
O17         H58 0.987       .   S
O17         H61 0.992       .   S
O18         H51 0.989       .   S
O19        Zr39 2.087       .   S
O20        Zr40 2.087       .   S
O20         H47 1.110       .   S
O21        Zr33 2.146       .   S
O21         X23 1.423       .   A
O22        Zr40 2.139       .   S
O22         X23 1.420       .   A
O24        Zr36 2.145       .   S
O24         X26 1.423       .   A
O25        Zr39 2.139       .   S
O25         X26 1.420       .   A
O27        Zr36 2.145       .   S
O27         X29 1.423       .   A
O28        Zr40 2.139       .   S
O28         X29 1.420       .   A
O30        Zr33 2.145       .   S
O30         X32 1.423       .   A
O31        Zr39 2.139       .   S
O31         X32 1.420       .   A
Zr33        O34 2.135       .   S
Zr33        O35 2.121       .   S
Zr33        O41 2.081       .   S
Zr33        O42 2.081       .   S
Zr33        O45 2.084       .   S
Zr33        O43 2.084       .   S
O34         H54 0.987       .   S
O34         H59 0.992       .   S
O35         H55 0.990       .   S
Zr36        O37 2.119       .   S
Zr36        O38 2.131       .   S
Zr36        O42 2.082       .   S
Zr36        O41 2.082       .   S
Zr36        O46 2.084       .   S
Zr36        O44 2.084       .   S
O37         H53 0.990       .   S
O38         H52 0.990       .   S
O38         H62 0.992       .   S
Zr39        O42 2.087       .   S
Zr39        O44 2.087       .   S
Zr39        O45 2.087       .   S
Zr40        O41 2.087       .   S
Zr40        O43 2.087       .   S
Zr40        O46 2.087       .   S
O41         H49 1.110       .   S
O44         H48 1.108       .   S
O45         H50 1.108       .   S
