data_1B_2OH
_audit_creation_date              2018-09-24
_audit_creation_method            'tobacco_3.0'
_symmetry_space_group_name_H-M    'P1'
_symmetry_Int_Tables_number       1
_symmetry_cell_setting            triclinic
loop_
_symmetry_equiv_pos_as_xyz
  x,y,z
_cell_length_a                    20.0000
_cell_length_b                    20.0000
_cell_length_c                    20.0000
_cell_angle_alpha                 90.0000
_cell_angle_beta                  90.0000
_cell_angle_gamma                 90.0000
loop_
_atom_site_label
_atom_site_type_symbol
_atom_site_fract_x
_atom_site_fract_y
_atom_site_fract_z
_atom_site_U_iso_or_equiv
_atom_site_adp_type
_atom_site_occupancy
_atom_site_charge
X1         C   -0.0703600000   -0.0072000000   -0.0029200000   0.00000  Uiso   1.00       -0.051687
C2         C   -0.0274800000   -0.0617100000   -0.0127600000   0.00000  Uiso   1.00       -0.325986
C3         C    0.0419700000   -0.0561200000   -0.0101900000   0.00000  Uiso   1.00        0.366517
X4         C    0.0703600000    0.0072000000    0.0029200000   0.00000  Uiso   1.00       -0.055265
C5         C    0.0274800000    0.0617100000    0.0127600000   0.00000  Uiso   1.00       -0.324967
C6         C   -0.0419700000    0.0561200000    0.0101900000   0.00000  Uiso   1.00        0.365579
H7         H   -0.0505900000   -0.1098800000   -0.0227600000   0.00000  Uiso   1.00        0.169276
FG8        O    0.0819700000   -0.1104500000   -0.0200600000   0.00000  Uiso   1.00        -0.59994
H9         H    0.0505900000    0.1098800000    0.0227600000   0.00000  Uiso   1.00        0.169427
FG10       O   -0.0819700000    0.1104500000    0.0200600000   0.00000  Uiso   1.00       -0.600908
FG11       H   -0.0541600000    0.1493500000    0.0283300000   0.00000  Uiso   1.00        0.439389
FG12       H    0.0541600000   -0.1493500000   -0.0283300000   0.00000  Uiso   1.00        0.438938
loop_
_geom_bond_atom_site_label_1
_geom_bond_atom_site_label_2
_geom_bond_distance
_geom_bond_site_symmetry_2
_ccdc_geom_bond_type
X1           C2 1.401       .   A
X1           C6 1.413       .   A
C2           C3 1.394       .   A
C2           H7 1.087       .   S
C3           X4 1.413       .   A
C3          FG8 1.364       .   S
X4           C5 1.401       .   A
C5           C6 1.394       .   A
C5           H9 1.087       .   S
C6         FG10 1.364       .   S
FG8        FG12 0.971       .   S
FG10       FG11 0.971       .   S
