data_1B_2SH
_audit_creation_date              2018-09-24
_audit_creation_method            'tobacco_3.0'
_symmetry_space_group_name_H-M    'P1'
_symmetry_Int_Tables_number       1
_symmetry_cell_setting            triclinic
loop_
_symmetry_equiv_pos_as_xyz
  x,y,z
_cell_length_a                    20.0000
_cell_length_b                    20.0000
_cell_length_c                    20.0000
_cell_angle_alpha                 90.0000
_cell_angle_beta                  90.0000
_cell_angle_gamma                 90.0000
loop_
_atom_site_label
_atom_site_type_symbol
_atom_site_fract_x
_atom_site_fract_y
_atom_site_fract_z
_atom_site_U_iso_or_equiv
_atom_site_adp_type
_atom_site_occupancy
_atom_site_charge
X1         C   -0.0708100000   -0.0000700000   -0.0022900000   0.00000  Uiso   1.00       -0.058264
C2         C   -0.0333000000   -0.0587700000   -0.0101000000   0.00000  Uiso   1.00       -0.169553
C3         C    0.0365700000   -0.0611900000   -0.0082900000   0.00000  Uiso   1.00        0.113706
X4         C    0.0708100000    0.0000700000    0.0022900000   0.00000  Uiso   1.00       -0.057523
C5         C    0.0332900000    0.0587100000    0.0104600000   0.00000  Uiso   1.00       -0.169866
C6         C   -0.0365800000    0.0611600000    0.0085300000   0.00000  Uiso   1.00        0.114023
FG7        S    0.0689900000   -0.1434900000   -0.0187600000   0.00000  Uiso   1.00       -0.319532
FG8        S   -0.0690900000    0.1430300000    0.0217100000   0.00000  Uiso   1.00       -0.319584
FG9        H   -0.1342700000    0.1290600000    0.0136200000   0.00000  Uiso   1.00        0.294109
FG10       H    0.1344100000   -0.1283600000   -0.0180800000   0.00000  Uiso   1.00        0.294058
H11        H   -0.0612200000   -0.1046200000   -0.0180000000   0.00000  Uiso   1.00        0.199981
H12        H    0.0611900000    0.1045100000    0.0187200000   0.00000  Uiso   1.00        0.200043
loop_
_geom_bond_atom_site_label_1
_geom_bond_atom_site_label_2
_geom_bond_distance
_geom_bond_site_symmetry_2
_ccdc_geom_bond_type
X1           C2 1.402       .   A
X1           C6 1.420       .   A
C2           C3 1.399       .   A
C2          H11 1.085       .   S
C3           X4 1.420       .   A
C3          FG7 1.781       .   S
X4           C5 1.402       .   A
C5           C6 1.399       .   A
C5          H12 1.085       .   S
C6          FG8 1.781       .   S
FG7        FG10 1.343       .   S
FG8         FG9 1.343       .   S
