data_1B_2Br
_audit_creation_date              2018-09-24
_audit_creation_method            'tobacco_3.0'
_symmetry_space_group_name_H-M    'P1'
_symmetry_Int_Tables_number       1
_symmetry_cell_setting            triclinic
loop_
_symmetry_equiv_pos_as_xyz
  x,y,z
_cell_length_a                    20.0000
_cell_length_b                    20.0000
_cell_length_c                    20.0000
_cell_angle_alpha                 90.0000
_cell_angle_beta                  90.0000
_cell_angle_gamma                 90.0000
loop_
_atom_site_label
_atom_site_type_symbol
_atom_site_fract_x
_atom_site_fract_y
_atom_site_fract_z
_atom_site_U_iso_or_equiv
_atom_site_adp_type
_atom_site_occupancy
_atom_site_charge
C1         C   -0.0687900000    0.0005800000    0.0038700000   0.00000  Uiso   1.00       -0.088591
X2         C   -0.0363300000   -0.0606700000   -0.0068800000   0.00000  Uiso   1.00        0.073367
C3         C    0.0339500000   -0.0604500000   -0.0107100000   0.00000  Uiso   1.00       -0.026269
C4         C    0.0687900000   -0.0005800000   -0.0038700000   0.00000  Uiso   1.00       -0.070765
X5         C    0.0363300000    0.0606700000    0.0068800000   0.00000  Uiso   1.00        0.064517
C6         C   -0.0339500000    0.0604500000    0.0107100000   0.00000  Uiso   1.00       -0.021016
FG7       Br   -0.0868700000    0.1378100000    0.0249300000   0.00000  Uiso   1.00       -0.017966
H8         H   -0.1227900000    0.0012600000    0.0069400000   0.00000  Uiso   1.00        0.103632
H9         H    0.1227900000   -0.0012600000   -0.0069400000   0.00000  Uiso   1.00        0.083817
FG10      Br    0.0868700000   -0.1378100000   -0.0249300000   0.00000  Uiso   1.00       -0.022247
loop_
_geom_bond_atom_site_label_1
_geom_bond_atom_site_label_2
_geom_bond_distance
_geom_bond_site_symmetry_2
_ccdc_geom_bond_type
C1           X2 1.403       .   A
C1           C6 1.392       .   A
C1           H8 1.082       .   S
X2           C3 1.408       .   A
C3           C4 1.392       .   A
C3         FG10 1.896       .   S
C4           X5 1.403       .   A
C4           H9 1.082       .   S
X5           C6 1.408       .   A
C6          FG7 1.896       .   S
