data_1B_2F
_audit_creation_date              2018-09-24
_audit_creation_method            'tobacco_3.0'
_symmetry_space_group_name_H-M    'P1'
_symmetry_Int_Tables_number       1
_symmetry_cell_setting            triclinic
loop_
_symmetry_equiv_pos_as_xyz
  x,y,z
_cell_length_a                    20.0000
_cell_length_b                    20.0000
_cell_length_c                    20.0000
_cell_angle_alpha                 90.0000
_cell_angle_beta                  90.0000
_cell_angle_gamma                 90.0000
loop_
_atom_site_label
_atom_site_type_symbol
_atom_site_fract_x
_atom_site_fract_y
_atom_site_fract_z
_atom_site_U_iso_or_equiv
_atom_site_adp_type
_atom_site_occupancy
_atom_site_charge
C1         C   -0.0694600000    0.0015300000    0.0042800000   0.00000  Uiso   1.00       -0.210094
X2         C   -0.0375600000   -0.0599800000   -0.0066900000   0.00000  Uiso   1.00       -0.090513
C3         C    0.0325500000   -0.0598700000   -0.0107600000   0.00000  Uiso   1.00        0.298055
C4         C    0.0694600000   -0.0015300000   -0.0042700000   0.00000  Uiso   1.00       -0.210097
X5         C    0.0375600000    0.0599800000    0.0066900000   0.00000  Uiso   1.00       -0.090649
C6         C   -0.0325500000    0.0598700000    0.0107600000   0.00000  Uiso   1.00        0.298129
FG7        F   -0.0665300000    0.1169000000    0.0211900000   0.00000  Uiso   1.00       -0.195863
H8         H   -0.1234400000    0.0040700000    0.0078000000   0.00000  Uiso   1.00        0.181779
H9         H    0.1234400000   -0.0040700000   -0.0078000000   0.00000  Uiso   1.00        0.181846
FG10       F    0.0665300000   -0.1169000000   -0.0211900000   0.00000  Uiso   1.00       -0.195753
loop_
_geom_bond_atom_site_label_1
_geom_bond_atom_site_label_2
_geom_bond_distance
_geom_bond_site_symmetry_2
_ccdc_geom_bond_type
C1           X2 1.403       .   A
C1           C6 1.387       .   A
C1           H8 1.083       .   S
X2           C3 1.404       .   A
C3           C4 1.387       .   A
C3         FG10 1.344       .   S
C4           X5 1.403       .   A
C4           H9 1.083       .   S
X5           C6 1.404       .   A
C6          FG7 1.344       .   S
