data_1B_2CF3
_audit_creation_date              2018-09-24
_audit_creation_method            'tobacco_3.0'
_symmetry_space_group_name_H-M    'P1'
_symmetry_Int_Tables_number       1
_symmetry_cell_setting            triclinic
loop_
_symmetry_equiv_pos_as_xyz
  x,y,z
_cell_length_a                    20.0000
_cell_length_b                    20.0000
_cell_length_c                    20.0000
_cell_angle_alpha                 90.0000
_cell_angle_beta                  90.0000
_cell_angle_gamma                 90.0000
loop_
_atom_site_label
_atom_site_type_symbol
_atom_site_fract_x
_atom_site_fract_y
_atom_site_fract_z
_atom_site_U_iso_or_equiv
_atom_site_adp_type
_atom_site_occupancy
_atom_site_charge
C1         C   -0.0688500000    0.0026600000    0.0040700000   0.00000  Uiso   1.00       -0.054831
X2         C   -0.0377400000   -0.0593200000   -0.0056700000   0.00000  Uiso   1.00        0.004434
C3         C    0.0324800000   -0.0619100000   -0.0094800000   0.00000  Uiso   1.00       -0.081286
C4         C    0.0688500000   -0.0026600000   -0.0040700000   0.00000  Uiso   1.00       -0.055049
X5         C    0.0377400000    0.0593200000    0.0056700000   0.00000  Uiso   1.00        0.004303
C6         C   -0.0324800000    0.0619100000    0.0094700000   0.00000  Uiso   1.00       -0.080371
FG7        C   -0.0715900000    0.1267100000    0.0177700000   0.00000  Uiso   1.00         0.62341
H8         H   -0.1228600000    0.0043100000    0.0066500000   0.00000  Uiso   1.00        0.130353
H9         H    0.1228600000   -0.0043100000   -0.0066500000   0.00000  Uiso   1.00        0.130473
FG10       C    0.0715900000   -0.1267100000   -0.0177900000   0.00000  Uiso   1.00        0.625755
FG11       F   -0.1370800000    0.1175000000    0.0021500000   0.00000  Uiso   1.00       -0.225918
FG12       F   -0.0488800000    0.1753800000   -0.0231800000   0.00000  Uiso   1.00       -0.199205
FG13       F   -0.0699900000    0.1496300000    0.0810900000   0.00000  Uiso   1.00        -0.19598
FG14       F    0.0699800000   -0.1496200000   -0.0811100000   0.00000  Uiso   1.00       -0.196501
FG15       F    0.0489000000   -0.1753800000    0.0231600000   0.00000  Uiso   1.00       -0.199728
FG16       F    0.1370800000   -0.1175000000   -0.0021800000   0.00000  Uiso   1.00        -0.22646
loop_
_geom_bond_atom_site_label_1
_geom_bond_atom_site_label_2
_geom_bond_distance
_geom_bond_site_symmetry_2
_ccdc_geom_bond_type
C1           X2 1.401       .   A
C1           C6 1.395       .   A
C1           H8 1.082       .   S
X2           C3 1.407       .   A
C3           C4 1.395       .   A
C3         FG10 1.523       .   S
C4           X5 1.401       .   A
C4           H9 1.082       .   S
X5           C6 1.407       .   A
C6          FG7 1.523       .   S
FG7        FG11 1.359       .   S
FG7        FG12 1.351       .   S
FG7        FG13 1.347       .   S
FG10       FG14 1.347       .   S
FG10       FG15 1.351       .   S
FG10       FG16 1.359       .   S
