data_1B_4Br
_audit_creation_date              2018-09-24
_audit_creation_method            'tobacco_3.0'
_symmetry_space_group_name_H-M    'P1'
_symmetry_Int_Tables_number       1
_symmetry_cell_setting            triclinic
loop_
_symmetry_equiv_pos_as_xyz
  x,y,z
_cell_length_a                    20.0000
_cell_length_b                    20.0000
_cell_length_c                    20.0000
_cell_angle_alpha                 90.0000
_cell_angle_beta                  90.0000
_cell_angle_gamma                 90.0000
loop_
_atom_site_label
_atom_site_type_symbol
_atom_site_fract_x
_atom_site_fract_y
_atom_site_fract_z
_atom_site_U_iso_or_equiv
_atom_site_adp_type
_atom_site_occupancy
_atom_site_charge
C1         C   -0.0682400000    0.0086900000   -0.0121000000   0.00000  Uiso   1.00       -0.015512
X2         C   -0.0409300000   -0.0556600000   -0.0112900000   0.00000  Uiso   1.00        0.081297
C3         C    0.0273500000   -0.0642800000    0.0009600000   0.00000  Uiso   1.00        -0.01664
C4         C    0.0682300000   -0.0087000000    0.0121200000   0.00000  Uiso   1.00       -0.016666
X5         C    0.0409300000    0.0556600000    0.0112900000   0.00000  Uiso   1.00        0.082621
C6         C   -0.0273700000    0.0642600000   -0.0009100000   0.00000  Uiso   1.00       -0.018627
FG7       Br   -0.0627300000    0.1519000000   -0.0019500000   0.00000  Uiso   1.00       -0.004112
FG8       Br   -0.1608300000    0.0186300000   -0.0284200000   0.00000  Uiso   1.00       -0.004825
FG9       Br    0.1607300000   -0.0186600000    0.0284600000   0.00000  Uiso   1.00       -0.004424
FG10      Br    0.0626700000   -0.1518600000    0.0021200000   0.00000  Uiso   1.00       -0.004259
loop_
_geom_bond_atom_site_label_1
_geom_bond_atom_site_label_2
_geom_bond_distance
_geom_bond_site_symmetry_2
_ccdc_geom_bond_type
C1           X2 1.398       .   A
C1           C6 1.398       .   A
C1          FG8 1.891       .   S
X2           C3 1.398       .   A
C3           C4 1.398       .   A
C3         FG10 1.889       .   S
C4           X5 1.398       .   A
C4          FG9 1.889       .   S
X5           C6 1.398       .   A
C6          FG7 1.890       .   S
