data_1B_4H
_audit_creation_date              2018-09-24
_audit_creation_method            'tobacco_3.0'
_symmetry_space_group_name_H-M    'P1'
_symmetry_Int_Tables_number       1
_symmetry_cell_setting            triclinic
loop_
_symmetry_equiv_pos_as_xyz
  x,y,z
_cell_length_a                    10.0000
_cell_length_b                    10.0000
_cell_length_c                    10.0000
_cell_angle_alpha                 90.0000
_cell_angle_beta                  90.0000
_cell_angle_gamma                 90.0000
loop_
_atom_site_label
_atom_site_type_symbol
_atom_site_fract_x
_atom_site_fract_y
_atom_site_fract_z
_atom_site_U_iso_or_equiv
_atom_site_adp_type
_atom_site_occupancy
_atom_site_charge
C1         C   -0.1540000000    0.0000000000    0.0000000000   0.00000  Uiso   1.00      -0.1304983
X2         C   -0.0770000000   -0.1333700000    0.0000000000   0.00000  Uiso   1.00      0.09099433
C3         C    0.0770000000   -0.1333700000    0.0000000000   0.00000  Uiso   1.00      -0.1304983
C4         C    0.1540000000    0.0000000000    0.0000000000   0.00000  Uiso   1.00      -0.1304983
X5         C    0.0770000000    0.1333700000    0.0000000000   0.00000  Uiso   1.00      0.09099433
C6         C   -0.0770000000    0.1333700000    0.0000000000   0.00000  Uiso   1.00      -0.1304983
H7         H   -0.2680000000    0.0000000000   -0.0000000000   0.00000  Uiso   1.00         0.13085
H8         H    0.1340000000   -0.2320900000    0.0000000000   0.00000  Uiso   1.00         0.13085
H9         H    0.2680000000    0.0000000000    0.0000000000   0.00000  Uiso   1.00         0.13085
H10        H   -0.1340000000    0.2320900000    0.0000000000   0.00000  Uiso   1.00         0.13085
loop_
_geom_bond_atom_site_label_1
_geom_bond_atom_site_label_2
_geom_bond_distance
_geom_bond_site_symmetry_2
_ccdc_geom_bond_type
C1           X2 1.540       .   A
C1           C6 1.540       .   A
C1           H7 1.140       .   S
X2           C3 1.540       .   A
C3           C4 1.540       .   A
C3           H8 1.140       .   S
C4           X5 1.540       .   A
C4           H9 1.140       .   S
X5           C6 1.540       .   A
C6          H10 1.140       .   S
