data_1B_4F
_audit_creation_date              2018-09-24
_audit_creation_method            'tobacco_3.0'
_symmetry_space_group_name_H-M    'P1'
_symmetry_Int_Tables_number       1
_symmetry_cell_setting            triclinic
loop_
_symmetry_equiv_pos_as_xyz
  x,y,z
_cell_length_a                    20.0000
_cell_length_b                    20.0000
_cell_length_c                    20.0000
_cell_angle_alpha                 90.0000
_cell_angle_beta                  90.0000
_cell_angle_gamma                 90.0000
loop_
_atom_site_label
_atom_site_type_symbol
_atom_site_fract_x
_atom_site_fract_y
_atom_site_fract_z
_atom_site_U_iso_or_equiv
_atom_site_adp_type
_atom_site_occupancy
_atom_site_charge
C1         C   -0.0687700000    0.0051700000   -0.0052700000   0.00000  Uiso   1.00        0.238927
X2         C   -0.0396200000   -0.0582600000   -0.0093300000   0.00000  Uiso   1.00       -0.242154
C3         C    0.0299900000   -0.0622400000   -0.0039700000   0.00000  Uiso   1.00           0.188
C4         C    0.0687600000   -0.0051600000    0.0052700000   0.00000  Uiso   1.00        0.238348
X5         C    0.0396200000    0.0582600000    0.0093300000   0.00000  Uiso   1.00       -0.241594
C6         C   -0.0299900000    0.0622400000    0.0039600000   0.00000  Uiso   1.00        0.187362
FG7        F   -0.0608000000    0.1216400000    0.0055100000   0.00000  Uiso   1.00       -0.141185
FG8        F   -0.1349900000    0.0126800000   -0.0122600000   0.00000  Uiso   1.00         -0.1648
FG9        F    0.1350000000   -0.0126800000    0.0122400000   0.00000  Uiso   1.00       -0.164824
FG10       F    0.0608000000   -0.1216200000   -0.0055200000   0.00000  Uiso   1.00       -0.141188
loop_
_geom_bond_atom_site_label_1
_geom_bond_atom_site_label_2
_geom_bond_distance
_geom_bond_site_symmetry_2
_ccdc_geom_bond_type
C1           X2 1.399       .   A
C1           C6 1.392       .   A
C1          FG8 1.340       .   S
X2           C3 1.399       .   A
C3           C4 1.392       .   A
C3         FG10 1.338       .   S
C4           X5 1.398       .   A
C4          FG9 1.341       .   S
X5           C6 1.399       .   A
C6          FG7 1.339       .   S
