data_1B_4CN
_audit_creation_date              2018-09-24
_audit_creation_method            'tobacco_3.0'
_symmetry_space_group_name_H-M    'P1'
_symmetry_Int_Tables_number       1
_symmetry_cell_setting            triclinic
loop_
_symmetry_equiv_pos_as_xyz
  x,y,z
_cell_length_a                    20.0000
_cell_length_b                    20.0000
_cell_length_c                    20.0000
_cell_angle_alpha                 90.0000
_cell_angle_beta                  90.0000
_cell_angle_gamma                 90.0000
loop_
_atom_site_label
_atom_site_type_symbol
_atom_site_fract_x
_atom_site_fract_y
_atom_site_fract_z
_atom_site_U_iso_or_equiv
_atom_site_adp_type
_atom_site_occupancy
_atom_site_charge
X1         C   -0.0703900000    0.0048200000    0.0044700000   0.00000  Uiso   1.00       -0.050412
C2         C   -0.0391900000   -0.0580700000    0.0060200000   0.00000  Uiso   1.00        -0.02158
C3         C    0.0313600000   -0.0628500000    0.0022600000   0.00000  Uiso   1.00        0.028313
X4         C    0.0703900000   -0.0048200000   -0.0044700000   0.00000  Uiso   1.00       -0.050398
C5         C    0.0391400000    0.0580200000   -0.0067700000   0.00000  Uiso   1.00       -0.021462
C6         C   -0.0313200000    0.0628900000   -0.0015700000   0.00000  Uiso   1.00        0.028272
FG7        C   -0.0781300000   -0.1178300000    0.0132400000   0.00000  Uiso   1.00        0.374778
FG8        C    0.0781700000    0.1178800000   -0.0125400000   0.00000  Uiso   1.00        0.374681
FG9        C   -0.0624000000    0.1274400000   -0.0042800000   0.00000  Uiso   1.00         0.35892
FG10       C    0.0623500000   -0.1274800000    0.0036300000   0.00000  Uiso   1.00        0.358927
FG11       N   -0.0875400000    0.1797400000   -0.0073300000   0.00000  Uiso   1.00       -0.389272
FG12       N    0.0873100000   -0.1799600000    0.0039200000   0.00000  Uiso   1.00       -0.389282
FG13       N    0.1091800000    0.1669100000   -0.0159100000   0.00000  Uiso   1.00        -0.38372
FG14       N   -0.1088800000   -0.1666200000    0.0203500000   0.00000  Uiso   1.00        -0.38376
loop_
_geom_bond_atom_site_label_1
_geom_bond_atom_site_label_2
_geom_bond_distance
_geom_bond_site_symmetry_2
_ccdc_geom_bond_type
X1           C2 1.404       .   A
X1           C6 1.405       .   A
C2           C3 1.416       .   A
C2          FG7 1.434       .   S
C3           X4 1.405       .   A
C3         FG10 1.434       .   S
X4           C5 1.404       .   A
C5           C6 1.416       .   A
C5          FG8 1.434       .   S
C6          FG9 1.434       .   S
FG7        FG14 1.162       .   T
FG8        FG13 1.162       .   T
FG9        FG11 1.162       .   T
FG10       FG12 1.162       .   T
