data_2B_1TrU_2
_audit_creation_date              2019-07-11
_audit_creation_method            'Materials Studio'
_symmetry_space_group_name_H-M    'P1'
_symmetry_Int_Tables_number       1
_symmetry_cell_setting            triclinic
loop_
_symmetry_equiv_pos_as_xyz
  x,y,z
_cell_length_a                    30.0000
_cell_length_b                    30.0000
_cell_length_c                    30.0000
_cell_angle_alpha                 90.0000
_cell_angle_beta                  90.0000
_cell_angle_gamma                 90.0000
loop_
_atom_site_label
_atom_site_type_symbol
_atom_site_fract_x
_atom_site_fract_y
_atom_site_fract_z
_atom_site_U_iso_or_equiv
_atom_site_adp_type
_atom_site_occupancy
X1    C   -0.18858   0.01545  -0.00001   0.00000  Uiso   1.00
C2     C    -0.16304  -0.02910   0.00001   0.00000  Uiso   1.00
C3     C    -0.11169  -0.02920   0.00000   0.00000  Uiso   1.00
C4     C    -0.08590   0.01521   0.00001   0.00000  Uiso   1.00
C5     C    -0.11144   0.05971  -0.00000   0.00000  Uiso   1.00
C6     C    -0.16276   0.05982   0.00000   0.00000  Uiso   1.00
C7     C    -0.03458   0.01505   0.00002   0.00000  Uiso   1.00
C8     C    -0.00871   0.05939   0.00001   0.00000  Uiso   1.00
C9     C     0.04262   0.05915   0.00000   0.00000  Uiso   1.00
C10    C     0.06810   0.01460   0.00001   0.00000  Uiso   1.00
C11    C     0.04223  -0.02975  -0.00000   0.00000  Uiso   1.00
C12    C    -0.00911  -0.02953   0.00001   0.00000  Uiso   1.00
C13    C     0.11943   0.01436  -0.00001   0.00000  Uiso   1.00
X14   C    0.17077   0.01399  -0.00001   0.00000  Uiso   1.00
H15    H    -0.18210  -0.06197   0.00002   0.00000  Uiso   1.00
H16    H    -0.09276  -0.06214  -0.00001   0.00000  Uiso   1.00
H17    H    -0.09235   0.09257  -0.00001   0.00000  Uiso   1.00
H18    H    -0.18168   0.09277   0.00002   0.00000  Uiso   1.00
H19    H    -0.02755   0.09239   0.00001   0.00000  Uiso   1.00
H20    H     0.06178   0.09197  -0.00001   0.00000  Uiso   1.00
H21    H     0.06108  -0.06274  -0.00002   0.00000  Uiso   1.00
H22    H    -0.02825  -0.06235   0.00001   0.00000  Uiso   1.00
loop_
_geom_bond_atom_site_label_1
_geom_bond_atom_site_label_2
_geom_bond_distance
_geom_bond_site_symmetry_2
_ccdc_geom_bond_type
X1    C2      1.540   .     A
X1    C6      1.540   .     A
C2     C3      1.540   .     A
C2     H15     1.140   .     S
C3     C4      1.540   .     A
C3     H16     1.140   .     S
C4     C5      1.539   .     A
C4     C7      1.540   .     S
C5     C6      1.540   .     A
C5     H17     1.140   .     S
C6     H18     1.140   .     S
C7     C8      1.540   .     A
C7     C12     1.540   .     A
C8     C9      1.540   .     A
C8     H19     1.140   .     S
C9     C10     1.540   .     A
C9     H20     1.140   .     S
C10    C11     1.540   .     A
C10    C13     1.540   .     S
C11    C12     1.540   .     A
C11    H21     1.140   .     S
C12    H22     1.140   .     S
C13    X14    1.540   .     T
