data_2B_2NH2
_audit_creation_date              2018-09-24
_audit_creation_method            'tobacco_3.0'
_symmetry_space_group_name_H-M    'P1'
_symmetry_Int_Tables_number       1
_symmetry_cell_setting            triclinic
loop_
_symmetry_equiv_pos_as_xyz
  x,y,z
_cell_length_a                    30.0000
_cell_length_b                    30.0000
_cell_length_c                    30.0000
_cell_angle_alpha                 90.0000
_cell_angle_beta                  90.0000
_cell_angle_gamma                 90.0000
loop_
_atom_site_label
_atom_site_type_symbol
_atom_site_fract_x
_atom_site_fract_y
_atom_site_fract_z
_atom_site_U_iso_or_equiv
_atom_site_adp_type
_atom_site_occupancy
_atom_site_charge
X1         C   -0.1856700000    0.0374800000    0.0401700000   0.00000  Uiso   1.00       -0.195819
C2         C   -0.1808300000    0.0029400000    0.0093300000   0.00000  Uiso   1.00        0.366477
C3         C   -0.1382600000   -0.0136400000   -0.0002800000   0.00000  Uiso   1.00       -0.255439
C4         C   -0.1004700000    0.0041100000    0.0209300000   0.00000  Uiso   1.00        0.030812
C5         C   -0.1055900000    0.0390100000    0.0522200000   0.00000  Uiso   1.00        0.278910
C6         C   -0.1484000000    0.0554200000    0.0614400000   0.00000  Uiso   1.00       -0.246775
N7         N   -0.2192300000   -0.0151600000   -0.0122400000   0.00000  Uiso   1.00       -0.820607
H8         H   -0.1344900000   -0.0402800000   -0.0244000000   0.00000  Uiso   1.00        0.136953
C9         C   -0.0560600000   -0.0136900000    0.0091200000   0.00000  Uiso   1.00        0.030527
N10        N   -0.0680500000    0.0575500000    0.0753000000   0.00000  Uiso   1.00       -0.806273
H11        H   -0.1530100000    0.0820700000    0.0853200000   0.00000  Uiso   1.00        0.185119
C12        C   -0.0272700000    0.0127800000   -0.0166400000   0.00000  Uiso   1.00       -0.254824
C13        C    0.0147100000   -0.0032400000   -0.0292800000   0.00000  Uiso   1.00        0.365589
X14        C    0.0279600000   -0.0459300000   -0.0162600000   0.00000  Uiso   1.00       -0.194985
C15        C   -0.0003300000   -0.0725700000    0.0092900000   0.00000  Uiso   1.00       -0.247449
C16        C   -0.0424200000   -0.0568600000    0.0223000000   0.00000  Uiso   1.00        0.279174
H17        H   -0.0376400000    0.0458200000   -0.0269600000   0.00000  Uiso   1.00        0.136834
N18        N    0.0439700000    0.0237300000   -0.0554500000   0.00000  Uiso   1.00       -0.820247
H19        H    0.0107300000   -0.1054700000    0.0191000000   0.00000  Uiso   1.00        0.185313
N20        N   -0.0703600000   -0.0847000000    0.0493100000   0.00000  Uiso   1.00       -0.806196
H21        H    0.0345700000    0.0557200000   -0.0654800000   0.00000  Uiso   1.00        0.341708
H22        H    0.0752800000    0.0118300000   -0.0649500000   0.00000  Uiso   1.00        0.386701
H23        H   -0.0600800000   -0.1167700000    0.0581500000   0.00000  Uiso   1.00        0.341232
H24        H   -0.1009200000   -0.0736400000    0.0617000000   0.00000  Uiso   1.00        0.308170
H25        H   -0.0723300000    0.0838000000    0.0977500000   0.00000  Uiso   1.00        0.341266
H26        H   -0.0358900000    0.0449400000    0.0712700000   0.00000  Uiso   1.00        0.308209
H27        H   -0.2510000000   -0.0028100000   -0.0051400000   0.00000  Uiso   1.00        0.386928
H28        H   -0.2162000000   -0.0409800000   -0.0353900000   0.00000  Uiso   1.00        0.341777
loop_
_geom_bond_atom_site_label_1
_geom_bond_atom_site_label_2
_geom_bond_distance
_geom_bond_site_symmetry_2
_ccdc_geom_bond_type
X1           C2 1.397       .   A
X1           C6 1.395       .   A
C2           C3 1.401       .   A
C2           N7 1.429       .   S
C3           C4 1.405       .   A
C3           H8 1.084       .   S
C4           C5 1.415       .   A
C4           C9 1.478       .   S
C5           C6 1.403       .   A
C5          N10 1.434       .   S
C6          H11 1.082       .   S
N7          H27 1.045       .   S
N7          H28 1.044       .   S
C9          C12 1.405       .   A
C9          C16 1.415       .   A
N10         H25 1.044       .   S
N10         H26 1.043       .   S
C12         C13 1.401       .   A
C12         H17 1.084       .   S
C13         X14 1.397       .   A
C13         N18 1.429       .   S
X14         C15 1.395       .   A
C15         C16 1.403       .   A
C15         H19 1.082       .   S
C16         N20 1.434       .   S
N18         H21 1.044       .   S
N18         H22 1.045       .   S
N20         H23 1.044       .   S
N20         H24 1.043       .   S