data_2B_2CH3
_audit_creation_date              2018-09-24
_audit_creation_method            'tobacco_3.0'
_symmetry_space_group_name_H-M    'P1'
_symmetry_Int_Tables_number       1
_symmetry_cell_setting            triclinic
loop_
_symmetry_equiv_pos_as_xyz
  x,y,z
_cell_length_a                    30.0000
_cell_length_b                    30.0000
_cell_length_c                    30.0000
_cell_angle_alpha                 90.0000
_cell_angle_beta                  90.0000
_cell_angle_gamma                 90.0000
loop_
_atom_site_label
_atom_site_type_symbol
_atom_site_fract_x
_atom_site_fract_y
_atom_site_fract_z
_atom_site_U_iso_or_equiv
_atom_site_adp_type
_atom_site_occupancy
_atom_site_charge
C1         C   -0.0608800000    0.0489100000   -0.0265700000   0.00000  Uiso   1.00       -0.221660
C2         C   -0.0444000000    0.0143400000    0.0003000000   0.00000  Uiso   1.00        0.098053
C3         C   -0.0051900000    0.0210200000    0.0255900000   0.00000  Uiso   1.00        0.102080
C4         C    0.0166600000    0.0623800000    0.0233900000   0.00000  Uiso   1.00       -0.170795
X5         C   -0.0000800000    0.0965000000   -0.0034300000   0.00000  Uiso   1.00       -0.275050
C6         C   -0.0388200000    0.0900100000   -0.0284800000   0.00000  Uiso   1.00        0.185347
C7         C   -0.0687000000   -0.0285100000    0.0015200000   0.00000  Uiso   1.00        0.125095
C8         C    0.0131600000   -0.0152500000    0.0550200000   0.00000  Uiso   1.00       -0.118573
H9         H    0.0467000000    0.0684300000    0.0424300000   0.00000  Uiso   1.00        0.127898
C10        C   -0.0566200000    0.1267800000   -0.0571500000   0.00000  Uiso   1.00       -0.226845
H11        H   -0.0909400000    0.0438000000   -0.0459700000   0.00000  Uiso   1.00        0.084280
C12        C   -0.1064900000   -0.0345100000    0.0290400000   0.00000  Uiso   1.00        0.047546
C13        C   -0.1284000000   -0.0758900000    0.0290900000   0.00000  Uiso   1.00       -0.199253
X14        C   -0.1131000000   -0.1107100000    0.0023100000   0.00000  Uiso   1.00       -0.122024
C15        C   -0.0757700000   -0.1049000000   -0.0249500000   0.00000  Uiso   1.00        0.134720
C16        C   -0.0536600000   -0.0637700000   -0.0253000000   0.00000  Uiso   1.00       -0.226499
C17        C   -0.1232500000    0.0025300000    0.0584700000   0.00000  Uiso   1.00       -0.057084
H18        H   -0.1573600000   -0.0814200000    0.0498800000   0.00000  Uiso   1.00        0.150075
C19        C   -0.0595100000   -0.1424100000   -0.0535800000   0.00000  Uiso   1.00       -0.158879
H20        H   -0.0247000000   -0.0592000000   -0.0464200000   0.00000  Uiso   1.00        0.093289
H21        H   -0.0908600000    0.1356300000   -0.0462200000   0.00000  Uiso   1.00        0.071795
H22        H   -0.0576500000    0.1156800000   -0.0924400000   0.00000  Uiso   1.00        0.083834
H23        H   -0.0353300000    0.1570100000   -0.0549000000   0.00000  Uiso   1.00        0.074313
H24        H    0.0220200000   -0.0447500000    0.0345200000   0.00000  Uiso   1.00        0.023071
H25        H   -0.0122300000   -0.0250300000    0.0801100000   0.00000  Uiso   1.00        0.027922
H26        H    0.0435600000   -0.0041700000    0.0730400000   0.00000  Uiso   1.00        0.062914
H27        H   -0.1526200000   -0.0080600000    0.0783800000   0.00000  Uiso   1.00        0.052744
H28        H   -0.1332200000    0.0314900000    0.0377100000   0.00000  Uiso   1.00       -0.004935
H29        H   -0.0965500000    0.0129400000    0.0818900000   0.00000  Uiso   1.00        0.009828
H30        H   -0.0604000000   -0.1322300000   -0.0891500000   0.00000  Uiso   1.00        0.046429
H31        H   -0.0806300000   -0.1725600000   -0.0494000000   0.00000  Uiso   1.00        0.065861
H32        H   -0.0247300000   -0.1510000000   -0.0442800000   0.00000  Uiso   1.00        0.074500
loop_
_geom_bond_atom_site_label_1
_geom_bond_atom_site_label_2
_geom_bond_distance
_geom_bond_site_symmetry_2
_ccdc_geom_bond_type
C1           C2 1.404       .   A
C1           C6 1.401       .   A
C1          H11 1.084       .   S
C2           C3 1.414       .   A
C2           C7 1.478       .   S
C3           C4 1.405       .   A
C3           C8 1.506       .   S
C4           X5 1.395       .   A
C4           H9 1.082       .   S
X5           C6 1.398       .   A
C6          C10 1.497       .   S
C7          C12 1.414       .   A
C7          C16 1.404       .   A
C8          H24 1.110       .   S
C8          H25 1.110       .   S
C8          H26 1.111       .   S
C10         H21 1.110       .   S
C10         H22 1.110       .   S
C10         H23 1.111       .   S
C12         C13 1.405       .   A
C12         C17 1.506       .   S
C13         X14 1.395       .   A
C13         H18 1.082       .   S
X14         C15 1.398       .   A
C15         C16 1.401       .   A
C15         C19 1.497       .   S
C16         H20 1.084       .   S
C17         H27 1.111       .   S
C17         H28 1.110       .   S
C17         H29 1.110       .   S
C19         H30 1.110       .   S
C19         H31 1.111       .   S
C19         H32 1.110       .   S