data_2B_2OH
_audit_creation_date              2018-09-24
_audit_creation_method            'tobacco_3.0'
_symmetry_space_group_name_H-M    'P1'
_symmetry_Int_Tables_number       1
_symmetry_cell_setting            triclinic
loop_
_symmetry_equiv_pos_as_xyz
  x,y,z
_cell_length_a                    30.0000
_cell_length_b                    30.0000
_cell_length_c                    30.0000
_cell_angle_alpha                 90.0000
_cell_angle_beta                  90.0000
_cell_angle_gamma                 90.0000
loop_
_atom_site_label
_atom_site_type_symbol
_atom_site_fract_x
_atom_site_fract_y
_atom_site_fract_z
_atom_site_U_iso_or_equiv
_atom_site_adp_type
_atom_site_occupancy
_atom_site_charge
C1         C   -0.0819800000    0.0495900000   -0.0186600000   0.00000  Uiso   1.00       -0.273197
C2         C   -0.0628700000    0.0125700000    0.0027800000   0.00000  Uiso   1.00        0.022830
C3         C   -0.0196800000    0.0164400000    0.0214600000   0.00000  Uiso   1.00        0.303691
C4         C    0.0035400000    0.0567400000    0.0176200000   0.00000  Uiso   1.00       -0.191084
X5         C   -0.0157700000    0.0931600000   -0.0039100000   0.00000  Uiso   1.00       -0.285127
C6         C   -0.0585600000    0.0897400000   -0.0220300000   0.00000  Uiso   1.00        0.444175
C7         C   -0.0882300000   -0.0297300000    0.0044700000   0.00000  Uiso   1.00        0.055926
O8         O   -0.0000700000   -0.0175000000    0.0436500000   0.00000  Uiso   1.00       -0.570345
H9         H    0.0366000000    0.0600400000    0.0316800000   0.00000  Uiso   1.00        0.185340
O10        O   -0.0773600000    0.1248400000   -0.0428100000   0.00000  Uiso   1.00       -0.637411
H11        H   -0.1149600000    0.0470800000   -0.0332000000   0.00000  Uiso   1.00        0.169718
C12        C   -0.1294900000   -0.0322100000    0.0268100000   0.00000  Uiso   1.00        0.292365
C13        C   -0.1532400000   -0.0725200000    0.0272200000   0.00000  Uiso   1.00       -0.246381
X14        C   -0.1362000000   -0.1100200000    0.0056100000   0.00000  Uiso   1.00       -0.239230
C15        C   -0.0953300000   -0.1077300000   -0.0167300000   0.00000  Uiso   1.00        0.406764
C16        C   -0.0715000000   -0.0676600000   -0.0173500000   0.00000  Uiso   1.00       -0.263751
O17        O   -0.1459200000    0.0039500000    0.0479700000   0.00000  Uiso   1.00       -0.582643
H18        H   -0.1849100000   -0.0749200000    0.0443300000   0.00000  Uiso   1.00        0.163178
O19        O   -0.0787900000   -0.1438300000   -0.0377100000   0.00000  Uiso   1.00       -0.596989
H20        H   -0.0400000000   -0.0660000000   -0.0349700000   0.00000  Uiso   1.00        0.147696
H21        H   -0.0620400000    0.1530900000   -0.0457300000   0.00000  Uiso   1.00        0.466271
H22        H   -0.1741000000    0.0033500000    0.0636600000   0.00000  Uiso   1.00        0.420104
H23        H   -0.0944500000   -0.1720400000   -0.0379200000   0.00000  Uiso   1.00        0.454515
H24        H   -0.0146200000   -0.0456100000    0.0496300000   0.00000  Uiso   1.00        0.369373
loop_
_geom_bond_atom_site_label_1
_geom_bond_atom_site_label_2
_geom_bond_distance
_geom_bond_site_symmetry_2
_ccdc_geom_bond_type
C1           C2 1.406       .   A
C1           C6 1.398       .   A
C1          H11 1.084       .   S
C2           C3 1.416       .   A
C2           C7 1.480       .   S
C3           C4 1.400       .   A
C3           O8 1.351       .   S
C4           X5 1.395       .   A
C4           H9 1.082       .   S
X5           C6 1.398       .   A
C6          O10 1.347       .   S
C7          C12 1.410       .   A
C7          C16 1.405       .   A
O8          H24 0.966       .   S
O10         H21 0.968       .   S
C12         C13 1.404       .   A
C12         O17 1.350       .   S
C13         X14 1.396       .   A
C13         H18 1.082       .   S
X14         C15 1.399       .   A
C15         C16 1.399       .   A
C15         O19 1.347       .   S
C16         H20 1.084       .   S
O17         H22 0.968       .   S
O19         H23 0.968       .   S