data_2B_2CF3
_audit_creation_date              2018-09-24
_audit_creation_method            'tobacco_3.0'
_symmetry_space_group_name_H-M    'P1'
_symmetry_Int_Tables_number       1
_symmetry_cell_setting            triclinic
loop_
_symmetry_equiv_pos_as_xyz
  x,y,z
_cell_length_a                    30.0000
_cell_length_b                    30.0000
_cell_length_c                    30.0000
_cell_angle_alpha                 90.0000
_cell_angle_beta                  90.0000
_cell_angle_gamma                 90.0000
loop_
_atom_site_label
_atom_site_type_symbol
_atom_site_fract_x
_atom_site_fract_y
_atom_site_fract_z
_atom_site_U_iso_or_equiv
_atom_site_adp_type
_atom_site_occupancy
_atom_site_charge
C1         C   -0.0591200000    0.0574000000   -0.0251700000   0.00000  Uiso   1.00       -0.115825
C2         C   -0.0402400000    0.0246800000    0.0024700000   0.00000  Uiso   1.00        0.110056
C3         C   -0.0016700000    0.0348000000    0.0279900000   0.00000  Uiso   1.00       -0.033898
C4         C    0.0161500000    0.0781800000    0.0255600000   0.00000  Uiso   1.00       -0.061177
X5         C   -0.0033700000    0.1104200000   -0.0016400000   0.00000  Uiso   1.00       -0.168938
C6         C   -0.0409900000    0.1003700000   -0.0271900000   0.00000  Uiso   1.00        0.020160
C7         C   -0.0611700000   -0.0200000000    0.0034000000   0.00000  Uiso   1.00        0.119723
C8         C    0.0206700000   -0.0000900000    0.0570600000   0.00000  Uiso   1.00        0.625971
H9         H    0.0454200000    0.0874900000    0.0444200000   0.00000  Uiso   1.00        0.120034
C10        C   -0.0619100000    0.1351600000   -0.0566000000   0.00000  Uiso   1.00        0.547185
H11        H   -0.0881800000    0.0493800000   -0.0451000000   0.00000  Uiso   1.00        0.077969
C12        C   -0.0995400000   -0.0291300000    0.0295900000   0.00000  Uiso   1.00       -0.060116
C13        C   -0.1173600000   -0.0725700000    0.0289500000   0.00000  Uiso   1.00       -0.067390
X14        C   -0.0980500000   -0.1058300000    0.0028500000   0.00000  Uiso   1.00       -0.163299
C15        C   -0.0606400000   -0.0967700000   -0.0233600000   0.00000  Uiso   1.00       -0.019217
C16        C   -0.0424900000   -0.0537500000   -0.0231100000   0.00000  Uiso   1.00       -0.094768
C17        C   -0.1216500000    0.0068400000    0.0574800000   0.00000  Uiso   1.00        0.648026
H18        H   -0.1464900000   -0.0811500000    0.0483800000   0.00000  Uiso   1.00        0.102623
C19        C   -0.0399400000   -0.1326500000   -0.0515800000   0.00000  Uiso   1.00        0.632008
H20        H   -0.0135900000   -0.0465000000   -0.0435600000   0.00000  Uiso   1.00        0.076139
F21        F   -0.1056000000    0.1420600000   -0.0436200000   0.00000  Uiso   1.00       -0.198497
F22        F   -0.0612700000    0.1207400000   -0.1003900000   0.00000  Uiso   1.00       -0.160793
F23        F   -0.0391100000    0.1752000000   -0.0538400000   0.00000  Uiso   1.00       -0.195733
F24        F    0.0377200000   -0.0337200000    0.0305900000   0.00000  Uiso   1.00       -0.229453
F25        F   -0.0098300000   -0.0181000000    0.0865300000   0.00000  Uiso   1.00       -0.244269
F26        F    0.0553800000    0.0178300000    0.0816400000   0.00000  Uiso   1.00       -0.184145
F27        F   -0.0409200000   -0.1199100000   -0.0958800000   0.00000  Uiso   1.00       -0.208932
F28        F   -0.0627100000   -0.1725600000   -0.0471100000   0.00000  Uiso   1.00       -0.220687
F29        F    0.0038600000   -0.1390600000   -0.0386800000   0.00000  Uiso   1.00       -0.192390
F30        F   -0.1561700000   -0.0101200000    0.0829900000   0.00000  Uiso   1.00       -0.193306
F31        F   -0.1389200000    0.0394300000    0.0298800000   0.00000  Uiso   1.00       -0.231729
F32        F   -0.0909300000    0.0259600000    0.0860100000   0.00000  Uiso   1.00       -0.247766
loop_
_geom_bond_atom_site_label_1
_geom_bond_atom_site_label_2
_geom_bond_distance
_geom_bond_site_symmetry_2
_ccdc_geom_bond_type
C1           C2 1.404       .   A
C1           C6 1.401       .   A
C1          H11 1.084       .   S
C2           C3 1.420       .   A
C2           C7 1.481       .   S
C3           C4 1.409       .   A
C3           C8 1.518       .   S
C4           X5 1.394       .   A
C4           H9 1.081       .   S
X5           C6 1.397       .   A
C6          C10 1.504       .   S
C7          C12 1.420       .   A
C7          C16 1.404       .   A
C8          F24 1.382       .   S
C8          F25 1.382       .   S
C8          F26 1.384       .   S
C10         F21 1.383       .   S
C10         F22 1.383       .   S
C10         F23 1.385       .   S
C12         C13 1.409       .   A
C12         C17 1.518       .   S
C13         X14 1.394       .   A
C13         H18 1.081       .   S
X14         C15 1.397       .   A
C15         C16 1.401       .   A
C15         C19 1.504       .   S
C16         H20 1.084       .   S
C17         F30 1.384       .   S
C17         F31 1.382       .   S
C17         F32 1.382       .   S
C19         F27 1.383       .   S
C19         F28 1.385       .   S
C19         F29 1.383       .   S