data_2B_2Br
_audit_creation_date              2018-09-24
_audit_creation_method            'tobacco_3.0'
_symmetry_space_group_name_H-M    'P1'
_symmetry_Int_Tables_number       1
_symmetry_cell_setting            triclinic
loop_
_symmetry_equiv_pos_as_xyz
  x,y,z
_cell_length_a                    30.0000
_cell_length_b                    30.0000
_cell_length_c                    30.0000
_cell_angle_alpha                 90.0000
_cell_angle_beta                  90.0000
_cell_angle_gamma                 90.0000
loop_
_atom_site_label
_atom_site_type_symbol
_atom_site_fract_x
_atom_site_fract_y
_atom_site_fract_z
_atom_site_U_iso_or_equiv
_atom_site_adp_type
_atom_site_occupancy
_atom_site_charge
X1         C   -0.2006700000   -0.0018800000    0.0329700000   0.00000  Uiso   1.00       -0.116736
C2         C   -0.1786000000   -0.0327500000    0.0060700000   0.00000  Uiso   1.00        0.038051
C3         C   -0.1320500000   -0.0326200000    0.0038000000   0.00000  Uiso   1.00       -0.122118
C4         C   -0.1072700000   -0.0015600000    0.0285700000   0.00000  Uiso   1.00        0.186611
C5         C   -0.1297500000    0.0296000000    0.0556900000   0.00000  Uiso   1.00       -0.092484
C6         C   -0.1763800000    0.0291700000    0.0576900000   0.00000  Uiso   1.00       -0.022129
H7         H   -0.1151800000   -0.0565900000   -0.0172900000   0.00000  Uiso   1.00        0.051928
C8         C   -0.0581600000   -0.0018200000    0.0252600000   0.00000  Uiso   1.00        0.206385
H9         H   -0.1939200000    0.0528100000    0.0785100000   0.00000  Uiso   1.00        0.103595
C10        C   -0.0365800000    0.0328800000    0.0024000000   0.00000  Uiso   1.00       -0.155901
C11        C    0.0098600000    0.0331300000   -0.0015300000   0.00000  Uiso   1.00        0.033562
X12        C    0.0350000000   -0.0012200000    0.0172200000   0.00000  Uiso   1.00       -0.109086
C13        C    0.0138900000   -0.0358900000    0.0399800000   0.00000  Uiso   1.00       -0.009311
C14        C   -0.0326000000   -0.0364800000    0.0441400000   0.00000  Uiso   1.00       -0.060949
H15        H   -0.0558500000    0.0595900000   -0.0124000000   0.00000  Uiso   1.00        0.063639
H16        H    0.0338000000   -0.0622200000    0.0544800000   0.00000  Uiso   1.00        0.097556
Br17      Br   -0.0981500000    0.0722600000    0.0913300000   0.00000  Uiso   1.00       -0.058018
Br18      Br   -0.2122600000   -0.0749500000   -0.0275000000   0.00000  Uiso   1.00       -0.027369
Br19      Br    0.0392000000    0.0802600000   -0.0325200000   0.00000  Uiso   1.00        0.001041
Br20      Br   -0.0596200000   -0.0843500000    0.0768100000   0.00000  Uiso   1.00       -0.042759
loop_
_geom_bond_atom_site_label_1
_geom_bond_atom_site_label_2
_geom_bond_distance
_geom_bond_site_symmetry_2
_ccdc_geom_bond_type
X1           C2 1.395       .   A
X1           C6 1.396       .   A
C2           C3 1.398       .   A
C2         Br18 1.907       .   S
C3           C4 1.405       .   A
C3           H7 1.083       .   S
C4           C5 1.411       .   A
C4           C8 1.477       .   S
C5           C6 1.400       .   A
C5         Br17 1.918       .   S
C6           H9 1.082       .   S
C8          C10 1.405       .   A
C8          C14 1.411       .   A
C10         C11 1.398       .   A
C10         H15 1.083       .   S
C11         X12 1.395       .   A
C11        Br19 1.907       .   S
X12         C13 1.396       .   A
C13         C14 1.400       .   A
C13         H16 1.082       .   S
C14        Br20 1.918       .   S