data_2B_2F
_audit_creation_date              2018-09-24
_audit_creation_method            'tobacco_3.0'
_symmetry_space_group_name_H-M    'P1'
_symmetry_Int_Tables_number       1
_symmetry_cell_setting            triclinic
loop_
_symmetry_equiv_pos_as_xyz
  x,y,z
_cell_length_a                    30.0000
_cell_length_b                    30.0000
_cell_length_c                    30.0000
_cell_angle_alpha                 90.0000
_cell_angle_beta                  90.0000
_cell_angle_gamma                 90.0000
loop_
_atom_site_label
_atom_site_type_symbol
_atom_site_fract_x
_atom_site_fract_y
_atom_site_fract_z
_atom_site_U_iso_or_equiv
_atom_site_adp_type
_atom_site_occupancy
_atom_site_charge
C1         C    0.0579500000    0.0246000000   -0.0091300000   0.00000  Uiso   1.00       -0.279150
C2         C    0.0530900000   -0.0068500000    0.0253100000   0.00000  Uiso   1.00        0.057035
C3         C    0.0847200000   -0.0077900000    0.0600300000   0.00000  Uiso   1.00        0.253211
C4         C    0.1203500000    0.0222900000    0.0600700000   0.00000  Uiso   1.00       -0.123936
X5         C    0.1248100000    0.0533500000    0.0257200000   0.00000  Uiso   1.00       -0.263375
C6         C    0.0936900000    0.0545300000   -0.0088400000   0.00000  Uiso   1.00        0.361317
C7         C    0.0153300000   -0.0387100000    0.0245900000   0.00000  Uiso   1.00        0.057124
F8         F    0.0806100000   -0.0370600000    0.0942900000   0.00000  Uiso   1.00       -0.201349
H9         H    0.1445400000    0.0217100000    0.0868200000   0.00000  Uiso   1.00        0.155419
F10        F    0.0982800000    0.0846800000   -0.0421600000   0.00000  Uiso   1.00       -0.238371
H11        H    0.0343600000    0.0256200000   -0.0364400000   0.00000  Uiso   1.00        0.173334
C12        C   -0.0287900000   -0.0236300000    0.0188600000   0.00000  Uiso   1.00        0.253296
C13        C   -0.0640400000   -0.0541400000    0.0179300000   0.00000  Uiso   1.00       -0.123634
X14        C   -0.0557100000   -0.0996800000    0.0226100000   0.00000  Uiso   1.00       -0.263990
C15        C   -0.0121400000   -0.1149600000    0.0282700000   0.00000  Uiso   1.00        0.362426
C16        C    0.0232900000   -0.0846900000    0.0292600000   0.00000  Uiso   1.00       -0.280314
F17        F   -0.0378400000    0.0205500000    0.0151600000   0.00000  Uiso   1.00       -0.201499
H18        H   -0.0979300000   -0.0425600000    0.0137200000   0.00000  Uiso   1.00        0.155379
F19        F   -0.0042700000   -0.1592200000    0.0326600000   0.00000  Uiso   1.00       -0.238548
H20        H    0.0569600000   -0.0971200000    0.0331800000   0.00000  Uiso   1.00        0.173611
loop_
_geom_bond_atom_site_label_1
_geom_bond_atom_site_label_2
_geom_bond_distance
_geom_bond_site_symmetry_2
_ccdc_geom_bond_type
C1           C2 1.407       .   A
C1           C6 1.398       .   A
C1          H11 1.083       .   S
C2           C3 1.409       .   A
C2           C7 1.482       .   S
C3           C4 1.399       .   A
C3           F8 1.357       .   S
C4           X5 1.396       .   A
C4           H9 1.082       .   S
X5           C6 1.396       .   A
C6          F10 1.355       .   S
C7          C12 1.409       .   A
C7          C16 1.407       .   A
C12         C13 1.399       .   A
C12         F17 1.357       .   S
C13         X14 1.396       .   A
C13         H18 1.082       .   S
X14         C15 1.396       .   A
C15         C16 1.398       .   A
C15         F19 1.355       .   S
C16         H20 1.083       .   S