data_2B_2CN
_audit_creation_date              2018-09-24
_audit_creation_method            'tobacco_3.0'
_symmetry_space_group_name_H-M    'P1'
_symmetry_Int_Tables_number       1
_symmetry_cell_setting            triclinic
loop_
_symmetry_equiv_pos_as_xyz
  x,y,z
_cell_length_a                    30.0000
_cell_length_b                    30.0000
_cell_length_c                    30.0000
_cell_angle_alpha                 90.0000
_cell_angle_beta                  90.0000
_cell_angle_gamma                 90.0000
loop_
_atom_site_label
_atom_site_type_symbol
_atom_site_fract_x
_atom_site_fract_y
_atom_site_fract_z
_atom_site_U_iso_or_equiv
_atom_site_adp_type
_atom_site_occupancy
_atom_site_charge
C1         C    0.0606000000    0.0378600000    0.0420200000   0.00000  Uiso   1.00       -0.017159
C2         C    0.0580500000   -0.0077000000    0.0302100000   0.00000  Uiso   1.00        0.068809
C3         C    0.0968700000   -0.0300100000    0.0163800000   0.00000  Uiso   1.00       -0.076831
C4         C    0.1376400000   -0.0074200000    0.0143900000   0.00000  Uiso   1.00        0.043188
X5         C    0.1399100000    0.0375200000    0.0261100000   0.00000  Uiso   1.00       -0.149107
C6         C    0.1016300000    0.0601100000    0.0398600000   0.00000  Uiso   1.00       -0.082378
C7         C    0.0152400000   -0.0324700000    0.0315800000   0.00000  Uiso   1.00        0.052602
C8         C   -0.0194400000   -0.0196700000    0.0027800000   0.00000  Uiso   1.00       -0.093624
C9         C   -0.0600400000   -0.0426400000    0.0030500000   0.00000  Uiso   1.00        0.002519
X10        C   -0.0662600000   -0.0785200000    0.0319800000   0.00000  Uiso   1.00        0.001188
C11        C   -0.0321100000   -0.0916200000    0.0607300000   0.00000  Uiso   1.00       -0.129136
C12        C    0.0087000000   -0.0688800000    0.0608000000   0.00000  Uiso   1.00        0.005776
C13        C   -0.0955300000   -0.0295800000   -0.0263700000   0.00000  Uiso   1.00        0.398939
C14        C    0.0429100000   -0.0827400000    0.0916700000   0.00000  Uiso   1.00        0.365100
C15        C    0.0219100000    0.0620300000    0.0573300000   0.00000  Uiso   1.00        0.362464
C16        C    0.1773500000   -0.0302000000    0.0002600000   0.00000  Uiso   1.00        0.370039
N17        N   -0.1240800000   -0.0190400000   -0.0500700000   0.00000  Uiso   1.00       -0.437923
N18        N    0.0703500000   -0.0938300000    0.1164000000   0.00000  Uiso   1.00       -0.442431
N19        N    0.2093100000   -0.0485700000   -0.0111000000   0.00000  Uiso   1.00       -0.415980
N20        N   -0.0091200000    0.0813700000    0.0696000000   0.00000  Uiso   1.00       -0.430400
H21        H    0.1041600000    0.0949600000    0.0489500000   0.00000  Uiso   1.00        0.131229
H22        H    0.0952200000   -0.0648800000    0.0069800000   0.00000  Uiso   1.00        0.096139
H23        H   -0.0146700000    0.0080300000   -0.0199500000   0.00000  Uiso   1.00        0.106827
H24        H   -0.0376800000   -0.1194700000    0.0830200000   0.00000  Uiso   1.00        0.164985
loop_
_geom_bond_atom_site_label_1
_geom_bond_atom_site_label_2
_geom_bond_distance
_geom_bond_site_symmetry_2
_ccdc_geom_bond_type
C1           C2 1.414       .   A
C1           C6 1.402       .   A
C1          C15 1.444       .   S
C2           C3 1.406       .   A
C2           C7 1.484       .   S
C3           C4 1.400       .   A
C3          H22 1.084       .   S
C4           X5 1.395       .   A
C4          C16 1.437       .   S
X5           C6 1.396       .   A
C6          H21 1.083       .   S
C7           C8 1.406       .   A
C7          C12 1.414       .   A
C8           C9 1.400       .   A
C8          H23 1.084       .   S
C9          X10 1.395       .   A
C9          C13 1.437       .   S
X10         C11 1.396       .   A
C11         C12 1.402       .   A
C11         H24 1.083       .   S
C12         C14 1.444       .   S
C13         N17 1.157       .   T
C14         N18 1.157       .   T
C15         N20 1.157       .   T
C16         N19 1.157       .   T