data_2B_2SH
_audit_creation_date              2018-09-24
_audit_creation_method            'tobacco_3.0'
_symmetry_space_group_name_H-M    'P1'
_symmetry_Int_Tables_number       1
_symmetry_cell_setting            triclinic
loop_
_symmetry_equiv_pos_as_xyz
  x,y,z
_cell_length_a                    30.0000
_cell_length_b                    30.0000
_cell_length_c                    30.0000
_cell_angle_alpha                 90.0000
_cell_angle_beta                  90.0000
_cell_angle_gamma                 90.0000
loop_
_atom_site_label
_atom_site_type_symbol
_atom_site_fract_x
_atom_site_fract_y
_atom_site_fract_z
_atom_site_U_iso_or_equiv
_atom_site_adp_type
_atom_site_occupancy
_atom_site_charge
C1         C   -0.0776800000    0.0496400000   -0.0195900000   0.00000  Uiso   1.00       -0.110884
C2         C   -0.0623300000    0.0127400000    0.0048500000   0.00000  Uiso   1.00        0.154552
C3         C   -0.0216400000    0.0159600000    0.0286500000   0.00000  Uiso   1.00        0.023561
C4         C    0.0028200000    0.0557000000    0.0267700000   0.00000  Uiso   1.00       -0.154415
X5         C   -0.0128500000    0.0920600000    0.0024000000   0.00000  Uiso   1.00       -0.102544
C6         C   -0.0531300000    0.0892200000   -0.0207100000   0.00000  Uiso   1.00        0.090762
C7         C   -0.0885200000   -0.0289200000    0.0030800000   0.00000  Uiso   1.00        0.101105
S8         S    0.0008400000   -0.0286200000    0.0623400000   0.00000  Uiso   1.00       -0.245794
H9         H    0.0340400000    0.0587500000    0.0445900000   0.00000  Uiso   1.00        0.203702
S10        S   -0.0734100000    0.1358800000   -0.0521300000   0.00000  Uiso   1.00       -0.302749
H11        H   -0.1086400000    0.0474100000   -0.0380700000   0.00000  Uiso   1.00        0.106819
C12        C   -0.1295300000   -0.0331200000    0.0258300000   0.00000  Uiso   1.00        0.038915
C13        C   -0.1534400000   -0.0732500000    0.0227700000   0.00000  Uiso   1.00       -0.125767
X14        C   -0.1369000000   -0.1086500000   -0.0024700000   0.00000  Uiso   1.00       -0.082527
C15        C   -0.0963800000   -0.1045800000   -0.0250100000   0.00000  Uiso   1.00        0.073398
C16        C   -0.0723000000   -0.0647800000   -0.0222700000   0.00000  Uiso   1.00       -0.133279
S17        S   -0.1507500000    0.0121200000    0.0593900000   0.00000  Uiso   1.00       -0.302585
H18        H   -0.1848600000   -0.0774900000    0.0399200000   0.00000  Uiso   1.00        0.115872
S19        S   -0.0750400000   -0.1500500000   -0.0574500000   0.00000  Uiso   1.00       -0.273590
H20        H   -0.0409100000   -0.0616900000   -0.0398800000   0.00000  Uiso   1.00        0.088117
H21        H   -0.0372600000    0.1639400000   -0.0416200000   0.00000  Uiso   1.00        0.272469
H22        H   -0.1899300000   -0.0094900000    0.0734200000   0.00000  Uiso   1.00        0.220476
H23        H   -0.1109800000   -0.1788500000   -0.0483100000   0.00000  Uiso   1.00        0.273630
H24        H   -0.0376600000   -0.0549900000    0.0654500000   0.00000  Uiso   1.00        0.161997
loop_
_geom_bond_atom_site_label_1
_geom_bond_atom_site_label_2
_geom_bond_distance
_geom_bond_site_symmetry_2
_ccdc_geom_bond_type
C1           C2 1.405       .   A
C1           C6 1.398       .   A
C1          H11 1.084       .   S
C2           C3 1.417       .   A
C2           C7 1.477       .   S
C3           C4 1.401       .   A
C3           S8 1.807       .   S
C4           X5 1.395       .   A
C4           H9 1.082       .   S
X5           C6 1.396       .   A
C6          S10 1.794       .   S
C7          C12 1.413       .   A
C7          C16 1.404       .   A
S8          H24 1.403       .   S
S10         H21 1.409       .   S
C12         C13 1.404       .   A
C12         S17 1.806       .   S
C13         X14 1.395       .   A
C13         H18 1.081       .   S
X14         C15 1.397       .   A
C15         C16 1.398       .   A
C15         S19 1.794       .   S
C16         H20 1.084       .   S
S17         H22 1.407       .   S
S19         H23 1.409       .   S