data_2B_2NO2
_audit_creation_date              2018-09-24
_audit_creation_method            'tobacco_3.0'
_symmetry_space_group_name_H-M    'P1'
_symmetry_Int_Tables_number       1
_symmetry_cell_setting            triclinic
loop_
_symmetry_equiv_pos_as_xyz
  x,y,z
_cell_length_a                    30.0000
_cell_length_b                    30.0000
_cell_length_c                    30.0000
_cell_angle_alpha                 90.0000
_cell_angle_beta                  90.0000
_cell_angle_gamma                 90.0000
loop_
_atom_site_label
_atom_site_type_symbol
_atom_site_fract_x
_atom_site_fract_y
_atom_site_fract_z
_atom_site_U_iso_or_equiv
_atom_site_adp_type
_atom_site_occupancy
_atom_site_charge
C1         C    0.0030000000    0.0809200000   -0.0268700000   0.00000  Uiso   1.00       -0.140640
C2         C    0.0266800000    0.0407800000   -0.0052200000   0.00000  Uiso   1.00        0.163184
C3         C    0.0779900000    0.0369800000   -0.0077800000   0.00000  Uiso   1.00        0.026114
C4         C    0.1048200000    0.0717400000   -0.0344200000   0.00000  Uiso   1.00       -0.125667
X5         C    0.0807600000    0.1105700000   -0.0578400000   0.00000  Uiso   1.00       -0.036261
C6         C    0.0297700000    0.1150600000   -0.0542400000   0.00000  Uiso   1.00        0.018501
C7         C   -0.0015700000    0.0030700000    0.0153700000   0.00000  Uiso   1.00        0.086941
N8         N    0.1025100000    0.0006000000    0.0171700000   0.00000  Uiso   1.00        0.650474
H9         H    0.1427500000    0.0688700000   -0.0365800000   0.00000  Uiso   1.00        0.179555
N10        N    0.0058700000    0.1520900000   -0.0786600000   0.00000  Uiso   1.00        0.755195
H11        H   -0.0349200000    0.0843600000   -0.0239700000   0.00000  Uiso   1.00        0.094810
C12        C   -0.0411800000    0.0137300000    0.0465200000   0.00000  Uiso   1.00        0.031793
C13        C   -0.0728800000   -0.0239100000    0.0612400000   0.00000  Uiso   1.00       -0.055457
X14        C   -0.0648100000   -0.0721300000    0.0455400000   0.00000  Uiso   1.00       -0.239349
C15        C   -0.0246200000   -0.0829400000    0.0155200000   0.00000  Uiso   1.00        0.124168
C16        C    0.0076500000   -0.0455800000    0.0016000000   0.00000  Uiso   1.00       -0.130836
N17        N   -0.0481600000    0.0603900000    0.0644400000   0.00000  Uiso   1.00        0.640945
H18        H   -0.1022900000   -0.0161000000    0.0841000000   0.00000  Uiso   1.00        0.119419
N19        N   -0.0176200000   -0.1299000000   -0.0013600000   0.00000  Uiso   1.00        0.607340
H20        H    0.0376700000   -0.0536400000   -0.0204500000   0.00000  Uiso   1.00        0.081074
O21        O   -0.0432800000    0.1556100000   -0.0761100000   0.00000  Uiso   1.00       -0.407321
O22        O    0.0314600000    0.1843500000   -0.1058400000   0.00000  Uiso   1.00       -0.399069
O23        O    0.1516400000   -0.0026900000    0.0138000000   0.00000  Uiso   1.00       -0.399023
O24        O    0.0779800000   -0.0306600000    0.0463800000   0.00000  Uiso   1.00       -0.376102
O25        O   -0.0492100000   -0.1656700000    0.0111800000   0.00000  Uiso   1.00       -0.385116
O26        O    0.0203500000   -0.1399800000   -0.0312100000   0.00000  Uiso   1.00       -0.346717
O27        O   -0.0866400000    0.0699300000    0.0938300000   0.00000  Uiso   1.00       -0.360781
O28        O   -0.0158200000    0.0962000000    0.0543000000   0.00000  Uiso   1.00       -0.403662
loop_
_geom_bond_atom_site_label_1
_geom_bond_atom_site_label_2
_geom_bond_distance
_geom_bond_site_symmetry_2
_ccdc_geom_bond_type
C1           C2 1.542       .   A
C1           C6 1.539       .   A
C1          H11 1.146       .   S
C2           C3 1.545       .   A
C2           C7 1.543       .   S
C3           C4 1.541       .   A
C3           N8 1.514       .   S
C4           X5 1.540       .   A
C4           H9 1.143       .   S
X5           C6 1.539       .   A
C6          N10 1.511       .   S
C7          C12 1.545       .   A
C7          C16 1.542       .   A
N8          O23 1.481       .   S
N8          O24 1.479       .   S
N10         O21 1.480       .   S
N10         O22 1.480       .   S
C12         C13 1.541       .   A
C12         N17 1.514       .   S
C13         X14 1.541       .   A
C13         H18 1.142       .   S
X14         C15 1.539       .   A
C15         C16 1.539       .   A
C15         N19 1.512       .   S
C16         H20 1.143       .   S
N17         O27 1.481       .   S
N17         O28 1.479       .   S
N19         O25 1.480       .   S
N19         O26 1.480       .   S