data_2B_4CN
_audit_creation_date              2018-09-24
_audit_creation_method            'tobacco_3.0'
_symmetry_space_group_name_H-M    'P1'
_symmetry_Int_Tables_number       1
_symmetry_cell_setting            triclinic
loop_
_symmetry_equiv_pos_as_xyz
  x,y,z
_cell_length_a                    30.0000
_cell_length_b                    30.0000
_cell_length_c                    30.0000
_cell_angle_alpha                 90.0000
_cell_angle_beta                  90.0000
_cell_angle_gamma                 90.0000
loop_
_atom_site_label
_atom_site_type_symbol
_atom_site_fract_x
_atom_site_fract_y
_atom_site_fract_z
_atom_site_U_iso_or_equiv
_atom_site_adp_type
_atom_site_occupancy
_atom_site_charge
C1         C    0.0617500000    0.0337100000    0.0469500000   0.00000  Uiso   1.00       -0.051676
C2         C    0.0490100000    0.0004800000    0.0160800000   0.00000  Uiso   1.00        0.089800
C3         C    0.0728300000   -0.0043800000   -0.0242800000   0.00000  Uiso   1.00       -0.025497
C4         C    0.1091500000    0.0239500000   -0.0334700000   0.00000  Uiso   1.00       -0.008166
X5         C    0.1214900000    0.0567100000   -0.0027200000   0.00000  Uiso   1.00       -0.044304
C6         C    0.0981400000    0.0617800000    0.0372900000   0.00000  Uiso   1.00        0.025895
C7         C    0.0105300000   -0.0293800000    0.0260600000   0.00000  Uiso   1.00        0.094331
C8         C    0.0599500000   -0.0383800000   -0.0560900000   0.00000  Uiso   1.00        0.353258
C9         C    0.1121500000    0.0961200000    0.0680200000   0.00000  Uiso   1.00        0.387557
C10        C   -0.0329600000   -0.0171100000    0.0127300000   0.00000  Uiso   1.00       -0.047931
C11        C   -0.0691400000   -0.0454800000    0.0222700000   0.00000  Uiso   1.00        0.023626
X12        C   -0.0619500000   -0.0856100000    0.0448600000   0.00000  Uiso   1.00       -0.043960
C13        C   -0.0190500000   -0.0980400000    0.0581800000   0.00000  Uiso   1.00       -0.006265
C14        C    0.0174600000   -0.0700100000    0.0488700000   0.00000  Uiso   1.00       -0.031835
C15        C   -0.0403100000    0.0245100000   -0.0106800000   0.00000  Uiso   1.00        0.360708
C16        C   -0.0132900000   -0.1398300000    0.0814300000   0.00000  Uiso   1.00        0.396806
C17        C   -0.1140700000   -0.0340700000    0.0091800000   0.00000  Uiso   1.00        0.388202
C18        C    0.0619600000   -0.0828100000    0.0626400000   0.00000  Uiso   1.00        0.357467
C19        C    0.0374800000    0.0388800000    0.0884000000   0.00000  Uiso   1.00        0.364295
C20        C    0.1342900000    0.0199900000   -0.0743600000   0.00000  Uiso   1.00        0.396697
N21        N   -0.1500400000   -0.0249100000   -0.0013000000   0.00000  Uiso   1.00       -0.383929
N22        N   -0.0461200000    0.0577500000   -0.0293600000   0.00000  Uiso   1.00       -0.399784
N23        N   -0.0086400000   -0.1732900000    0.1000400000   0.00000  Uiso   1.00       -0.377289
N24        N    0.0975200000   -0.0929700000    0.0736000000   0.00000  Uiso   1.00       -0.401165
N25        N    0.0496200000   -0.0655400000   -0.0814500000   0.00000  Uiso   1.00       -0.398903
N26        N    0.1544300000    0.0168400000   -0.1071100000   0.00000  Uiso   1.00       -0.375194
N27        N    0.1233800000    0.1236200000    0.0926300000   0.00000  Uiso   1.00       -0.385710
N28        N    0.0180600000    0.0429700000    0.1214700000   0.00000  Uiso   1.00       -0.402293
loop_
_geom_bond_atom_site_label_1
_geom_bond_atom_site_label_2
_geom_bond_distance
_geom_bond_site_symmetry_2
_ccdc_geom_bond_type
C1           C2 1.413       .   A
C1           C6 1.409       .   A
C1          C19 1.449       .   S
C2           C3 1.413       .   A
C2           C7 1.491       .   S
C3           C4 1.409       .   A
C3           C8 1.449       .   S
C4           X5 1.398       .   A
C4          C20 1.445       .   S
X5           C6 1.398       .   A
C6           C9 1.445       .   S
C7          C10 1.413       .   A
C7          C14 1.413       .   A
C8          N25 1.157       .   T
C9          N27 1.157       .   T
C10         C11 1.409       .   A
C10         C15 1.449       .   S
C11         X12 1.398       .   A
C11         C17 1.445       .   S
X12         C13 1.398       .   A
C13         C14 1.409       .   A
C13         C16 1.445       .   S
C14         C18 1.449       .   S
C15         N22 1.157       .   T
C16         N23 1.157       .   T
C17         N21 1.157       .   T
C18         N24 1.157       .   T
C19         N28 1.157       .   T
C20         N26 1.157       .   T