data_2B_4H
_audit_creation_date              2018-09-24
_audit_creation_method            'tobacco_3.0'
_symmetry_space_group_name_H-M    'P1'
_symmetry_Int_Tables_number       1
_symmetry_cell_setting            triclinic
loop_
_symmetry_equiv_pos_as_xyz
  x,y,z
_cell_length_a                    30.0000
_cell_length_b                    30.0000
_cell_length_c                    30.0000
_cell_angle_alpha                 90.0000
_cell_angle_beta                  90.0000
_cell_angle_gamma                 90.0000
loop_
_atom_site_label
_atom_site_type_symbol
_atom_site_fract_x
_atom_site_fract_y
_atom_site_fract_z
_atom_site_U_iso_or_equiv
_atom_site_adp_type
_atom_site_occupancy
_atom_site_charge
C1         C    0.0592100000    0.0206000000   -0.0139000000   0.00000  Uiso   1.00       -0.105355
C2         C    0.0549900000   -0.0095900000    0.0218000000   0.00000  Uiso   1.00        0.065968
C3         C    0.0905900000   -0.0139800000    0.0520800000   0.00000  Uiso   1.00       -0.093118
C4         C    0.1294000000    0.0112700000    0.0467100000   0.00000  Uiso   1.00       -0.109436
X5         C    0.1331500000    0.0410600000    0.0111700000   0.00000  Uiso   1.00       -0.007369
C6         C    0.0981300000    0.0457200000   -0.0190900000   0.00000  Uiso   1.00       -0.098418
C7         C    0.0137100000   -0.0363400000    0.0274100000   0.00000  Uiso   1.00        0.066195
H8         H    0.0881800000   -0.0364600000    0.0802200000   0.00000  Uiso   1.00        0.085489
H9         H    0.1565900000    0.0078700000    0.0701500000   0.00000  Uiso   1.00        0.120004
H10        H    0.1012600000    0.0687700000   -0.0466500000   0.00000  Uiso   1.00        0.122752
H11        H    0.0327000000    0.0243400000   -0.0381100000   0.00000  Uiso   1.00        0.085729
C12        C   -0.0284300000   -0.0171100000    0.0197400000   0.00000  Uiso   1.00       -0.105448
C13        C   -0.0672200000   -0.0423900000    0.0250700000   0.00000  Uiso   1.00       -0.098364
X14        C   -0.0644500000   -0.0869800000    0.0380300000   0.00000  Uiso   1.00       -0.007423
C15        C   -0.0229100000   -0.1064500000    0.0457200000   0.00000  Uiso   1.00       -0.109297
C16        C    0.0160300000   -0.0813600000    0.0404900000   0.00000  Uiso   1.00       -0.093372
H17        H   -0.0314000000    0.0175700000    0.0102200000   0.00000  Uiso   1.00        0.085737
H18        H   -0.0995200000   -0.0274300000    0.0192700000   0.00000  Uiso   1.00        0.122737
H19        H   -0.0209400000   -0.1410700000    0.0556400000   0.00000  Uiso   1.00        0.119961
H20        H    0.0479100000   -0.0973100000    0.0460800000   0.00000  Uiso   1.00        0.085623
loop_
_geom_bond_atom_site_label_1
_geom_bond_atom_site_label_2
_geom_bond_distance
_geom_bond_site_symmetry_2
_ccdc_geom_bond_type
C1           C2 1.408       .   A
C1           C6 1.398       .   A
C1          H11 1.083       .   S
C2           C3 1.408       .   A
C2           C7 1.485       .   S
C3           C4 1.398       .   A
C3           H8 1.083       .   S
C4           X5 1.396       .   A
C4           H9 1.082       .   S
X5           C6 1.396       .   A
C6          H10 1.082       .   S
C7          C12 1.408       .   A
C7          C16 1.408       .   A
C12         C13 1.398       .   A
C12         H17 1.083       .   S
C13         X14 1.396       .   A
C13         H18 1.082       .   S
X14         C15 1.396       .   A
C15         C16 1.398       .   A
C15         H19 1.082       .   S
C16         H20 1.083       .   S