data_2B_4Br
_audit_creation_date              2018-09-24
_audit_creation_method            'tobacco_3.0'
_symmetry_space_group_name_H-M    'P1'
_symmetry_Int_Tables_number       1
_symmetry_cell_setting            triclinic
loop_
_symmetry_equiv_pos_as_xyz
  x,y,z
_cell_length_a                    30.0000
_cell_length_b                    30.0000
_cell_length_c                    30.0000
_cell_angle_alpha                 90.0000
_cell_angle_beta                  90.0000
_cell_angle_gamma                 90.0000
loop_
_atom_site_label
_atom_site_type_symbol
_atom_site_fract_x
_atom_site_fract_y
_atom_site_fract_z
_atom_site_U_iso_or_equiv
_atom_site_adp_type
_atom_site_occupancy
_atom_site_charge
X1         C   -0.1982500000    0.0023900000    0.0453400000   0.00000  Uiso   1.00        0.016307
C2         C   -0.1762000000   -0.0385700000    0.0440700000   0.00000  Uiso   1.00        0.044608
C3         C   -0.1295400000   -0.0399500000    0.0400900000   0.00000  Uiso   1.00       -0.116054
C4         C   -0.1051900000    0.0002300000    0.0374000000   0.00000  Uiso   1.00        0.237572
C5         C   -0.1277600000    0.0414900000    0.0387200000   0.00000  Uiso   1.00       -0.121721
C6         C   -0.1744400000    0.0422900000    0.0427000000   0.00000  Uiso   1.00        0.051659
C7         C   -0.0560400000   -0.0009200000    0.0332100000   0.00000  Uiso   1.00        0.275827
C8         C   -0.0291100000   -0.0008500000    0.0717900000   0.00000  Uiso   1.00       -0.128637
C9         C    0.0175400000   -0.0019400000    0.0675200000   0.00000  Uiso   1.00        0.056781
X10        C    0.0370100000   -0.0030800000    0.0252700000   0.00000  Uiso   1.00       -0.088298
C11        C    0.0106300000   -0.0031500000   -0.0130700000   0.00000  Uiso   1.00        0.064937
C12        C   -0.0360600000   -0.0020700000   -0.0093700000   0.00000  Uiso   1.00       -0.131915
Br13      Br   -0.0948600000    0.0965300000    0.0350700000   0.00000  Uiso   1.00       -0.052703
Br14      Br   -0.2112900000   -0.0918500000    0.0478800000   0.00000  Uiso   1.00        0.003565
Br15      Br    0.0560600000   -0.0019200000    0.1185100000   0.00000  Uiso   1.00        0.008179
Br16      Br   -0.0725100000   -0.0021700000   -0.0622600000   0.00000  Uiso   1.00       -0.036013
Br17      Br   -0.2071700000    0.0971400000    0.0446800000   0.00000  Uiso   1.00        0.009143
Br18      Br   -0.0990700000   -0.0964600000    0.0383300000   0.00000  Uiso   1.00       -0.028951
Br19      Br   -0.0560300000    0.0007200000    0.1300800000   0.00000  Uiso   1.00       -0.037593
Br20      Br    0.0399300000   -0.0047500000   -0.0698400000   0.00000  Uiso   1.00        0.002161
loop_
_geom_bond_atom_site_label_1
_geom_bond_atom_site_label_2
_geom_bond_distance
_geom_bond_site_symmetry_2
_ccdc_geom_bond_type
X1           C2 1.396       .   A
X1           C6 1.396       .   A
C2           C3 1.406       .   A
C2         Br14 1.917       .   S
C3           C4 1.412       .   A
C3         Br18 1.927       .   S
C4           C5 1.412       .   A
C4           C7 1.480       .   S
C5           C6 1.406       .   A
C5         Br13 1.927       .   S
C6         Br17 1.917       .   S
C7           C8 1.412       .   A
C7          C12 1.412       .   A
C8           C9 1.406       .   A
C8         Br19 1.927       .   S
C9          X10 1.396       .   A
C9         Br15 1.917       .   S
X10         C11 1.396       .   A
C11         C12 1.406       .   A
C11        Br20 1.917       .   S
C12        Br16 1.927       .   S