data_2B_4F
_audit_creation_date              2018-09-24
_audit_creation_method            'tobacco_3.0'
_symmetry_space_group_name_H-M    'P1'
_symmetry_Int_Tables_number       1
_symmetry_cell_setting            triclinic
loop_
_symmetry_equiv_pos_as_xyz
  x,y,z
_cell_length_a                    30.0000
_cell_length_b                    30.0000
_cell_length_c                    30.0000
_cell_angle_alpha                 90.0000
_cell_angle_beta                  90.0000
_cell_angle_gamma                 90.0000
loop_
_atom_site_label
_atom_site_type_symbol
_atom_site_fract_x
_atom_site_fract_y
_atom_site_fract_z
_atom_site_U_iso_or_equiv
_atom_site_adp_type
_atom_site_occupancy
_atom_site_charge
C1         C    0.0412200000    0.0403400000    0.0320100000   0.00000  Uiso   1.00        0.129699
C2         C    0.0523800000   -0.0050100000    0.0273300000   0.00000  Uiso   1.00       -0.000752
C3         C    0.0976000000   -0.0175600000    0.0265300000   0.00000  Uiso   1.00        0.149081
C4         C    0.1309700000    0.0148100000    0.0303500000   0.00000  Uiso   1.00        0.243175
X5         C    0.1195600000    0.0596800000    0.0349900000   0.00000  Uiso   1.00       -0.420213
C6         C    0.0748300000    0.0724600000    0.0358300000   0.00000  Uiso   1.00        0.313610
C7         C    0.0169600000   -0.0391100000    0.0232900000   0.00000  Uiso   1.00       -0.000117
F8         F    0.1093200000   -0.0609600000    0.0213100000   0.00000  Uiso   1.00       -0.143240
F9         F    0.0641400000    0.1161000000    0.0405000000   0.00000  Uiso   1.00       -0.148537
C10        C   -0.0136600000   -0.0374100000   -0.0122300000   0.00000  Uiso   1.00        0.149111
C11        C   -0.0470800000   -0.0697400000   -0.0159100000   0.00000  Uiso   1.00        0.243212
X12        C   -0.0502100000   -0.1038000000    0.0156400000   0.00000  Uiso   1.00       -0.419611
C13        C   -0.0200200000   -0.1057700000    0.0509800000   0.00000  Uiso   1.00        0.312850
C14        C    0.0135400000   -0.0736100000    0.0549400000   0.00000  Uiso   1.00        0.129883
F15        F   -0.0106700000   -0.0049500000   -0.0436300000   0.00000  Uiso   1.00       -0.143213
F16        F   -0.0234600000   -0.1389000000    0.0815000000   0.00000  Uiso   1.00       -0.148396
F17        F   -0.0764900000   -0.0682500000   -0.0501700000   0.00000  Uiso   1.00       -0.171200
F18        F    0.0421600000   -0.0756300000    0.0899400000   0.00000  Uiso   1.00       -0.156761
F19        F   -0.0021100000    0.0533000000    0.0336300000   0.00000  Uiso   1.00       -0.156808
F20        F    0.1745100000    0.0028000000    0.0294300000   0.00000  Uiso   1.00       -0.171012
loop_
_geom_bond_atom_site_label_1
_geom_bond_atom_site_label_2
_geom_bond_distance
_geom_bond_site_symmetry_2
_ccdc_geom_bond_type
C1           C2 1.408       .   A
C1           C6 1.399       .   A
C1          F19 1.358       .   S
C2           C3 1.408       .   A
C2           C7 1.480       .   S
C3           C4 1.399       .   A
C3           F8 1.358       .   S
C4           X5 1.396       .   A
C4          F20 1.355       .   S
X5           C6 1.396       .   A
C6           F9 1.355       .   S
C7          C10 1.408       .   A
C7          C14 1.408       .   A
C10         C11 1.399       .   A
C10         F15 1.358       .   S
C11         X12 1.396       .   A
C11         F17 1.355       .   S
X12         C13 1.396       .   A
C13         C14 1.399       .   A
C13         F16 1.355       .   S
C14         F18 1.358       .   S