data_2TrU_Ch
_audit_creation_date              2019-09-10
_audit_creation_method            'Materials Studio'
_symmetry_space_group_name_H-M    'P1'
_symmetry_Int_Tables_number       1
_symmetry_cell_setting            triclinic
loop_
_symmetry_equiv_pos_as_xyz
  x,y,z
_cell_length_a                    20.0000
_cell_length_b                    20.0000
_cell_length_c                    20.0000
_cell_angle_alpha                 90.0000
_cell_angle_beta                  90.0000
_cell_angle_gamma                 90.0000
loop_
_atom_site_label
_atom_site_type_symbol
_atom_site_fract_x
_atom_site_fract_y
_atom_site_fract_z
_atom_site_U_iso_or_equiv
_atom_site_adp_type
_atom_site_occupancy
_atom_site_charge
X1     C     0.18108   0.04224   0.48876   0.00000  Uiso   1.00 -0.18212
C2     C     0.25742   0.05226   0.48874   0.00000  Uiso   1.00 0.05852
C3     C     0.33372   0.06258   0.48874   0.00000  Uiso   1.00 0.07706
X4     C     0.41010   0.07232   0.48874   0.00000  Uiso   1.00 -0.1906
loop_
_geom_bond_atom_site_label_1
_geom_bond_atom_site_label_2
_geom_bond_distance
_geom_bond_site_symmetry_2
_ccdc_geom_bond_type
X1     C2      1.540   .     T
C2     C3      1.540   .     S
C3     X4      1.540   .     T
